@<TRIPOS>MOLECULE
3R136
137   139    1
SMALL
USER_CHARGES


@<TRIPOS>ATOM
      1 CA         28.9975   22.2854   -1.6420 C.3       0 UNK        -0.1979 
      2 C          28.4892   22.0672   -0.2253 C.2       0 UNK         0.4864 
      3 O          27.8937   21.0257    0.0505 O.2       0 UNK        -0.5359 
      4 N          28.6877   23.0503    0.6670 N.am      1 UNK        -0.4318 
      5 CA         28.3233   23.0735    2.0963 C.3       1 UNK         0.0824 
      6 C6         28.9881   21.9468    2.9395 C.3       12 UNK        -0.0944 
      7 S7         30.5354   22.4907    3.7394 S.3       12 UNK        -0.2672 
      8 C8         31.7958   22.1849    2.4596 C.3       12 UNK         0.0333 
      9 C9         32.2880   23.4890    1.8457 C.ar      12 UNK        -0.0807 
     10 C10        33.1590   24.3146    2.5624 C.ar      12 UNK        -0.0894 
     11 C11        33.6261   25.5180    2.0144 C.ar      12 UNK        -0.0804 
     12 C12        33.1904   25.8919    0.7358 C.ar      12 UNK        -0.0824 
     13 C13        32.3344   25.0651   -0.0006 C.ar      12 UNK        -0.0762 
     14 C14        31.8999   23.8605    0.5574 C.ar      12 UNK        -0.0782 
     15 C15        31.9225   25.4275   -1.4221 C.3       12 UNK         0.0230 
     16 S16        30.2214   26.0844   -1.5072 S.3       12 UNK        -0.2608 
     17 C17        30.4914   27.8598   -1.8702 C.3       12 UNK        -0.0989 
     18 CA         29.7965   28.8307   -0.8836 C.3       5 UNK         0.0716 
     19 N          28.3421   28.6412   -0.8346 N.am      5 UNK        -0.4135 
     20 C          27.4855   29.3848   -0.1188 C.2       4 UNK         0.5031 
     21 O          27.8372   30.3400    0.5741 O.2       4 UNK        -0.5229 
     22 CA         25.9884   29.0204   -0.1550 C.3       4 UNK         0.0329 
     23 CB         25.1769   30.1612   -0.7916 C.3       4 UNK        -0.2001 
     24 N          25.6524   27.7632   -0.8338 N.am      4 UNK        -0.4303 
     25 C          25.9948   26.5368   -0.4204 C.2       3 UNK         0.5044 
     26 O          26.7472   26.3154    0.5321 O.2       3 UNK        -0.5152 
     27 CA         25.4459   25.3708   -1.2588 C.3       3 UNK         0.0319 
     28 CB         26.3792   25.0841   -2.4466 C.3       3 UNK        -0.2001 
     29 N          25.3267   24.1602   -0.4506 N.am      3 UNK        -0.4354 
     30 C          24.3662   23.9174    0.4538 C.2       2 UNK         0.4964 
     31 O          23.3659   24.6200    0.6021 O.2       2 UNK        -0.5047 
     32 CA         24.5764   22.6882    1.3604 C.3       2 UNK         0.0288 
     33 CB         23.9155   21.4417    0.7508 C.3       2 UNK        -0.2113 
     34 N          26.0019   22.4267    1.5755 N.am      2 UNK        -0.4145 
     35 C          26.8017   23.1851    2.3360 C.2       1 UNK         0.5006 
     36 O          26.3795   23.9970    3.1610 O.2       1 UNK        -0.5103 
     37 C          30.4609   28.7976    0.5060 C.2       5 UNK         0.5055 
     38 O          31.3235   29.6314    0.7811 O.2       5 UNK        -0.5220 
     39 N          30.0180   27.8709    1.3670 N.am      6 UNK        -0.4450 
     40 CA         30.5173   27.7290    2.7328 C.3       6 UNK         0.0367 
     41 CB         30.0537   26.3919    3.3231 C.3       6 UNK        -0.1929 
     42 C          30.1081   28.8972    3.6404 C.2       6 UNK         0.5070 
     43 O          30.9031   29.3103    4.4837 O.2       6 UNK        -0.5237 
     44 N          28.8954   29.4289    3.4357 N.am      7 UNK        -0.4739 
     45 CA         28.3881   30.6094    4.1361 C.3       7 UNK         0.0276 
     46 CB         26.8675   30.7225    3.9393 C.3       7 UNK        -0.1927 
     47 C          29.1033   31.8900    3.6801 C.2       7 UNK         0.5013 
     48 O          29.4798   32.7014    4.5253 O.2       7 UNK        -0.5193 
     49 N          29.3129   32.0248    2.3623 N.am      8 UNK        -0.4253 
     50 CA         30.0477   33.1271    1.7368 C.3       8 UNK         0.0242 
     51 CB         29.9063   33.0380    0.2087 C.3       8 UNK        -0.2000 
     52 C          31.5295   33.1679    2.1475 C.2       8 UNK         0.4948 
     53 O          32.0453   34.2470    2.4409 O.2       8 UNK        -0.5275 
     54 N          32.1789   31.9958    2.1839 N.am      9 UNK        -0.4246 
     55 CA         33.5644   31.8278    2.6301 C.3       9 UNK         0.0261 
     56 CB         34.0820   30.4642    2.1441 C.3       9 UNK        -0.1959 
     57 C          33.7440   31.9359    4.1553 C.2       9 UNK         0.5033 
     58 O          34.8715   32.1563    4.6000 O.2       9 UNK        -0.5390 
     59 N          32.6560   31.7430    4.9185 N.am      10 UNK        -0.4215 
     60 CA         32.6051   31.5850    6.3779 C.3       10 UNK         0.0240 
     61 CB         32.9973   32.8924    7.0987 C.3       10 UNK        -0.1982 
     62 C          33.4246   30.3602    6.8306 C.2       10 UNK         0.4970 
     63 O          34.2979   30.4752    7.6933 O.2       10 UNK        -0.4916 
     64 N          33.1494   29.2203    6.1848 N.am      11 UNK        -0.4279 
     65 CA         33.8521   27.9426    6.3563 C.3       11 UNK         0.1003 
     66 C          33.7010   27.3301    7.7769 C.2       11 UNK         0.5709 
     67 N          34.6653   26.5288    8.2089 N.am      11 UNK        -0.7358 
     68 O          32.7072   27.5397    8.4709 O.2       11 UNK        -0.4999 
     69 C69        33.4435   26.9317    5.2458 C.3       12 UNK        -0.0954 
     70 S70        34.8837   26.0865    4.5176 S.3       12 UNK        -0.2268 
     71 C71        34.6478   26.4081    2.7308 C.3       12 UNK         0.0203 
     72 H72        28.1797   22.1820   -2.3546 H         1 UNK         0.0888 
     73 H73        29.4371   23.2719   -1.7756 H         1 UNK         0.0888 
     74 H74        29.7553   21.5413   -1.8853 H         1 UNK         0.0888 
     75 H75        29.1254   23.9039    0.3479 H         1 UNK         0.3017 
     76 H76        28.7080   24.0275    2.4536 H         1 UNK         0.0873 
     77 H77        28.3337   21.6267    3.7530 H         1 UNK         0.0745 
     78 H78        29.1711   21.0445    2.3557 H         1 UNK         0.0745 
     79 H79        31.4053   21.5149    1.6924 H         1 UNK         0.0705 
     80 H80        32.6383   21.6635    2.9162 H         1 UNK         0.0705 
     81 H81        33.4756   23.9972    3.5453 H         1 UNK         0.1334 
     82 H82        33.5457   26.8152    0.2986 H         1 UNK         0.1417 
     83 H83        31.2716   23.2022   -0.0221 H         1 UNK         0.1562 
     84 H84        31.9725   24.5328   -2.0446 H         1 UNK         0.0748 
     85 H85        32.6358   26.1248   -1.8624 H         1 UNK         0.0748 
     86 H86        31.5587   28.0828   -1.9156 H         1 UNK         0.0940 
     87 H87        30.1208   28.0470   -2.8793 H         1 UNK         0.0940 
     88 H88        29.9521   29.8408   -1.2682 H         1 UNK         0.0703 
     89 H89        27.9774   27.8575   -1.3543 H         1 UNK         0.3081 
     90 H90        25.6714   28.9221    0.8854 H         1 UNK         0.0719 
     91 H91        25.4343   30.3020   -1.8421 H         1 UNK         0.0809 
     92 H92        24.1053   29.9707   -0.7291 H         1 UNK         0.0809 
     93 H93        25.3626   31.1080   -0.2818 H         1 UNK         0.0809 
     94 H94        25.0606   27.8451   -1.6486 H         1 UNK         0.2990 
     95 H95        24.4572   25.6372   -1.6389 H         1 UNK         0.0690 
     96 H96        27.3910   24.8451   -2.1180 H         1 UNK         0.0788 
     97 H97        26.4496   25.9480   -3.1089 H         1 UNK         0.0788 
     98 H98        26.0151   24.2493   -3.0459 H         1 UNK         0.0788 
     99 H99        26.1182   23.5378   -0.4671 H         1 UNK         0.2993 
    100 H100       24.1062   22.8967    2.3240 H         1 UNK         0.0949 
    101 H101       24.3546   21.1808   -0.2132 H         1 UNK         0.0767 
    102 H102       24.0162   20.5788    1.4094 H         1 UNK         0.0767 
    103 H103       22.8486   21.6049    0.5914 H         1 UNK         0.0767 
    104 H104       26.4567   21.7528    0.9621 H         1 UNK         0.3013 
    105 H105       29.3008   27.2282    1.0594 H         1 UNK         0.3121 
    106 H106       31.6062   27.7183    2.6761 H         1 UNK         0.0774 
    107 H107       30.4180   26.2657    4.3433 H         1 UNK         0.0815 
    108 H108       28.9660   26.3147    3.3505 H         1 UNK         0.0815 
    109 H109       30.4423   25.5580    2.7406 H         1 UNK         0.0815 
    110 H110       28.3257   29.0590    2.6885 H         1 UNK         0.2987 
    111 H111       28.5833   30.4821    5.2036 H         1 UNK         0.0949 
    112 H112       26.5984   30.8545    2.8910 H         1 UNK         0.0806 
    113 H113       26.3530   29.8352    4.3083 H         1 UNK         0.0806 
    114 H114       26.4689   31.5780    4.4862 H         1 UNK         0.0806 
    115 H115       28.9167   31.3257    1.7369 H         1 UNK         0.3010 
    116 H116       29.5867   34.0600    2.0681 H         1 UNK         0.0829 
    117 H117       30.4167   33.8689   -0.2801 H         1 UNK         0.0813 
    118 H118       30.3343   32.1149   -0.1832 H         1 UNK         0.0813 
    119 H119       28.8599   33.0748   -0.0951 H         1 UNK         0.0813 
    120 H120       31.7081   31.1597    1.8434 H         1 UNK         0.3038 
    121 H121       34.1722   32.6099    2.1702 H         1 UNK         0.0769 
    122 H122       35.1194   30.3056    2.4421 H         1 UNK         0.0811 
    123 H123       34.0408   30.3871    1.0575 H         1 UNK         0.0811 
    124 H124       33.4922   29.6470    2.5605 H         1 UNK         0.0811 
    125 H125       31.7878   31.5425    4.4391 H         1 UNK         0.3204 
    126 H126       31.5644   31.3704    6.6265 H         1 UNK         0.0748 
    127 H127       32.8549   32.7994    8.1760 H         1 UNK         0.0771 
    128 H128       34.0424   33.1545    6.9317 H         1 UNK         0.0771 
    129 H129       32.3839   33.7279    6.7609 H         1 UNK         0.0771 
    130 H130       32.3713   29.2201    5.5278 H         1 UNK         0.2980 
    131 H131       34.9083   28.1918    6.2345 H         1 UNK         0.0545 
    132 H132       34.5832   26.1077    9.1210 H         1 UNK         0.3459 
    133 H133       35.4668   26.3265    7.6315 H         1 UNK         0.3459 
    134 H134       32.7356   26.1822    5.6052 H         1 UNK         0.0616 
    135 H135       32.9256   27.4471    4.4406 H         1 UNK         0.0616 
    136 H136       34.3905   27.4577    2.5897 H         1 UNK         0.0634 
    137 H137       35.6116   26.2653    2.2410 H         1 UNK         0.0634 
@<TRIPOS>BOND
     1    1    2 1    
     2    1   72 1    
     3    1   73 1    
     4    1   74 1    
     5    2    3 2    
     6    2    4 am   BACKBONE|DICT|INTERRES
     7    4    5 1    
     8    4   75 1    
     9    5    6 1    
    10    5   35 1    
    11    5   76 1    
    12    6    7 1    
    13    6   77 1    
    14    6   78 1    
    15    7    8 1    
    16    8    9 1    
    17    8   79 1    
    18    8   80 1    
    19    9   10 ar   
    20    9   14 ar   
    21   10   11 ar   
    22   10   81 1    
    23   11   12 ar   
    24   11   71 1    
    25   12   13 ar   
    26   12   82 1    
    27   13   14 ar   
    28   13   15 1    
    29   14   83 1    
    30   15   16 1    
    31   15   84 1    
    32   15   85 1    
    33   16   17 1    
    34   17   18 1    
    35   17   86 1    
    36   17   87 1    
    37   18   19 1    
    38   18   37 1    
    39   18   88 1    
    40   19   20 am   BACKBONE|DICT|INTERRES
    41   19   89 1    
    42   20   21 2    
    43   20   22 1    
    44   22   23 1    
    45   22   24 1    
    46   22   90 1    
    47   23   91 1    
    48   23   92 1    
    49   23   93 1    
    50   24   25 am   BACKBONE|DICT|INTERRES
    51   24   94 1    
    52   25   26 2    
    53   25   27 1    
    54   27   28 1    
    55   27   29 1    
    56   27   95 1    
    57   28   96 1    
    58   28   97 1    
    59   28   98 1    
    60   29   30 am   BACKBONE|DICT|INTERRES
    61   29   99 1    
    62   30   31 2    
    63   30   32 1    
    64   32   33 1    
    65   32   34 1    
    66   32  100 1    
    67   33  101 1    
    68   33  102 1    
    69   33  103 1    
    70   34   35 am   BACKBONE|DICT|INTERRES
    71   34  104 1    
    72   35   36 2    
    73   37   38 2    
    74   37   39 am   BACKBONE|DICT|INTERRES
    75   39   40 1    
    76   39  105 1    
    77   40   41 1    
    78   40   42 1    
    79   40  106 1    
    80   41  107 1    
    81   41  108 1    
    82   41  109 1    
    83   42   43 2    
    84   42   44 am   BACKBONE|DICT|INTERRES
    85   44   45 1    
    86   44  110 1    
    87   45   46 1    
    88   45   47 1    
    89   45  111 1    
    90   46  112 1    
    91   46  113 1    
    92   46  114 1    
    93   47   48 2    
    94   47   49 am   BACKBONE|DICT|INTERRES
    95   49   50 1    
    96   49  115 1    
    97   50   51 1    
    98   50   52 1    
    99   50  116 1    
   100   51  117 1    
   101   51  118 1    
   102   51  119 1    
   103   52   53 2    
   104   52   54 am   BACKBONE|DICT|INTERRES
   105   54   55 1    
   106   54  120 1    
   107   55   56 1    
   108   55   57 1    
   109   55  121 1    
   110   56  122 1    
   111   56  123 1    
   112   56  124 1    
   113   57   58 2    
   114   57   59 am   BACKBONE|DICT|INTERRES
   115   59   60 1    
   116   59  125 1    
   117   60   61 1    
   118   60   62 1    
   119   60  126 1    
   120   61  127 1    
   121   61  128 1    
   122   61  129 1    
   123   62   63 2    
   124   62   64 am   BACKBONE|DICT|INTERRES
   125   64   65 1    
   126   64  130 1    
   127   65   66 1    
   128   65   69 1    
   129   65  131 1    
   130   66   67 am   BACKBONE|DICT|INTERRES
   131   66   68 2    
   132   67  132 1    
   133   67  133 1    
   134   69   70 1    
   135   69  134 1    
   136   69  135 1    
   137   70   71 1    
   138   71  136 1    
   139   71  137 1    
@<TRIPOS>SUBSTRUCTURE
     1 UNK         1 GROUP             0       ****    0 ROOT    
