@<TRIPOS>MOLECULE
3R136
137   139    1
SMALL
USER_CHARGES


@<TRIPOS>ATOM
      1 CA         27.8897   20.0674   -2.2996 C.3       0 UNK        -0.1979 
      2 C          28.8838   21.2095   -2.4532 C.2       0 UNK         0.4864 
      3 O          29.7138   21.1774   -3.3636 O.2       0 UNK        -0.5359 
      4 N          28.8086   22.2104   -1.5663 N.am      1 UNK        -0.4318 
      5 CA         29.6301   23.4252   -1.5990 C.3       1 UNK         0.0824 
      6 C6         29.8712   23.9795   -0.1665 C.3       12 UNK        -0.0944 
      7 S7         31.5329   24.7142    0.0127 S.3       12 UNK        -0.2672 
      8 C8         32.4002   23.4501    0.9950 C.3       12 UNK         0.0333 
      9 C9         32.1944   23.6499    2.4908 C.ar      12 UNK        -0.0807 
     10 C10        33.1094   24.4098    3.2261 C.ar      12 UNK        -0.0894 
     11 C11        32.9553   24.5763    4.6070 C.ar      12 UNK        -0.0804 
     12 C12        31.8638   23.9821    5.2497 C.ar      12 UNK        -0.0824 
     13 C13        30.9475   23.2091    4.5281 C.ar      12 UNK        -0.0762 
     14 C14        31.1197   23.0458    3.1504 C.ar      12 UNK        -0.0782 
     15 C15        29.8038   22.4981    5.2402 C.3       12 UNK         0.0230 
     16 S16        28.1823   23.2463    4.8823 S.3       12 UNK        -0.2608 
     17 C17        28.2953   24.8302    5.7802 C.3       12 UNK        -0.0989 
     18 CA         28.2016   26.0475    4.8291 C.3       5 UNK         0.0716 
     19 N          26.9225   26.0682    4.0988 N.am      5 UNK        -0.4135 
     20 C          26.5683   26.9659    3.1718 C.2       4 UNK         0.5031 
     21 O          27.2244   27.9769    2.9161 O.2       4 UNK        -0.5229 
     22 CA         25.2373   26.7326    2.4360 C.3       4 UNK         0.0329 
     23 CB         24.0848   27.4051    3.1991 C.3       4 UNK        -0.2001 
     24 N          25.2980   27.2834    1.0787 N.am      4 UNK        -0.4303 
     25 C          26.0995   26.8053    0.1184 C.2       3 UNK         0.5044 
     26 O          26.7019   25.7313    0.2107 O.2       3 UNK        -0.5152 
     27 CA         26.3050   27.6824   -1.1285 C.3       3 UNK         0.0319 
     28 CB         26.4003   29.1885   -0.7951 C.3       3 UNK        -0.2001 
     29 N          27.5337   27.2255   -1.7686 N.am      3 UNK        -0.4354 
     30 C          27.9388   27.4539   -3.0209 C.2       2 UNK         0.4964 
     31 O          27.3200   28.1501   -3.8264 O.2       2 UNK        -0.5047 
     32 CA         29.2675   26.7986   -3.4529 C.3       2 UNK         0.0288 
     33 CB         30.4002   27.8394   -3.4421 C.3       2 UNK        -0.2113 
     34 N          29.6767   25.6493   -2.6334 N.am      2 UNK        -0.4145 
     35 C          29.0229   24.4816   -2.5518 C.2       1 UNK         0.5006 
     36 O          27.9866   24.2420   -3.1786 O.2       1 UNK        -0.5103 
     37 C          28.5312   27.3452    5.6013 C.2       5 UNK         0.5055 
     38 O          29.7079   27.6137    5.8322 O.2       5 UNK        -0.5220 
     39 N          27.5088   28.1202    5.9889 N.am      6 UNK        -0.4450 
     40 CA         27.6640   29.4228    6.6401 C.3       6 UNK         0.0367 
     41 CB         26.3972   29.7231    7.4582 C.3       6 UNK        -0.1929 
     42 C          27.9433   30.5734    5.6535 C.2       6 UNK         0.5070 
     43 O          28.4436   31.6131    6.0847 O.2       6 UNK        -0.5237 
     44 N          27.6085   30.3953    4.3687 N.am      7 UNK        -0.4739 
     45 CA         27.6970   31.4266    3.3306 C.3       7 UNK         0.0276 
     46 CB         26.3394   31.5138    2.6124 C.3       7 UNK        -0.1927 
     47 C          28.8104   31.1526    2.3077 C.2       7 UNK         0.5013 
     48 O          29.3534   32.1069    1.7497 O.2       7 UNK        -0.5193 
     49 N          29.1029   29.8721    2.0472 N.am      8 UNK        -0.4253 
     50 CA         30.0663   29.4127    1.0469 C.3       8 UNK         0.0242 
     51 CB         29.9408   27.8882    0.9056 C.3       8 UNK        -0.2000 
     52 C          31.5160   29.7796    1.3974 C.2       8 UNK         0.4948 
     53 O          31.8892   29.7318    2.5717 O.2       8 UNK        -0.5275 
     54 N          32.3132   30.0720    0.3576 N.am      9 UNK        -0.4246 
     55 CA         33.7615   30.3150    0.3916 C.3       9 UNK         0.0261 
     56 CB         34.5026   28.9642    0.5400 C.3       9 UNK        -0.1959 
     57 C          34.1559   31.3742    1.4438 C.2       9 UNK         0.5033 
     58 O          33.5961   32.4724    1.4312 O.2       9 UNK        -0.5390 
     59 N          35.0834   31.0187    2.3403 N.am      10 UNK        -0.4215 
     60 CA         35.4204   31.7688    3.5522 C.3       10 UNK         0.0240 
     61 CB         36.9522   31.7942    3.7040 C.3       10 UNK        -0.1982 
     62 C          34.7540   31.1610    4.8044 C.2       10 UNK         0.4970 
     63 O          35.0017   31.6514    5.9072 O.2       10 UNK        -0.4916 
     64 N          33.9533   30.1007    4.6319 N.am      11 UNK        -0.4279 
     65 CA         33.2493   29.3883    5.7066 C.3       11 UNK         0.1003 
     66 C          31.9810   30.1443    6.1851 C.2       11 UNK         0.5709 
     67 N          31.2663   30.8248    5.2975 N.am      11 UNK        -0.7358 
     68 O          31.6639   30.1351    7.3723 O.2       11 UNK        -0.4999 
     69 C69        32.9067   27.9304    5.2987 C.3       12 UNK        -0.0954 
     70 S70        34.3751   26.9875    4.7688 S.3       12 UNK        -0.2268 
     71 C71        34.0076   25.3261    5.4188 C.3       12 UNK         0.0203 
     72 H72        28.4189   19.1252   -2.1592 H         1 UNK         0.0888 
     73 H73        27.2276   20.2145   -1.4465 H         1 UNK         0.0888 
     74 H74        27.2746   19.9833   -3.1952 H         1 UNK         0.0888 
     75 H75        28.0744   22.2000   -0.8728 H         1 UNK         0.3017 
     76 H76        30.5976   23.1489   -2.0249 H         1 UNK         0.0873 
     77 H77        29.1231   24.7199    0.1203 H         1 UNK         0.0745 
     78 H78        29.7693   23.1808    0.5671 H         1 UNK         0.0745 
     79 H79        32.0781   22.4526    0.6918 H         1 UNK         0.0705 
     80 H80        33.4647   23.5031    0.7613 H         1 UNK         0.0705 
     81 H81        33.9556   24.8600    2.7251 H         1 UNK         0.1334 
     82 H82        31.7461   24.0935    6.3190 H         1 UNK         0.1417 
     83 H83        30.4199   22.4337    2.5995 H         1 UNK         0.1562 
     84 H84        29.9649   22.4802    6.3193 H         1 UNK         0.0748 
     85 H85        29.7824   21.4543    4.9233 H         1 UNK         0.0748 
     86 H86        29.2298   24.8542    6.3443 H         1 UNK         0.0940 
     87 H87        27.4976   24.8621    6.5249 H         1 UNK         0.0940 
     88 H88        28.9847   25.9430    4.0741 H         1 UNK         0.0703 
     89 H89        26.3245   25.2691    4.2529 H         1 UNK         0.3081 
     90 H90        25.0475   25.6592    2.3695 H         1 UNK         0.0719 
     91 H91        24.2393   28.4806    3.3001 H         1 UNK         0.0809 
     92 H92        23.1311   27.2496    2.6943 H         1 UNK         0.0809 
     93 H93        23.9865   26.9940    4.2047 H         1 UNK         0.0809 
     94 H94        24.8614   28.1818    0.9374 H         1 UNK         0.2990 
     95 H95        25.4675   27.5069   -1.8062 H         1 UNK         0.0690 
     96 H96        25.4530   29.5764   -0.4204 H         1 UNK         0.0788 
     97 H97        26.6520   29.7796   -1.6755 H         1 UNK         0.0788 
     98 H98        27.1601   29.3845   -0.0382 H         1 UNK         0.0788 
     99 H99        28.0553   26.5683   -1.2029 H         1 UNK         0.2993 
    100 H100       29.1320   26.4453   -4.4774 H         1 UNK         0.0949 
    101 H101       31.3296   27.4199   -3.8280 H         1 UNK         0.0767 
    102 H102       30.1496   28.6963   -4.0693 H         1 UNK         0.0767 
    103 H103       30.5921   28.2165   -2.4369 H         1 UNK         0.0767 
    104 H104       30.5156   25.7615   -2.0793 H         1 UNK         0.3013 
    105 H105       26.5688   27.8239    5.7721 H         1 UNK         0.3121 
    106 H106       28.5097   29.3751    7.3303 H         1 UNK         0.0774 
    107 H107       26.4903   30.6737    7.9854 H         1 UNK         0.0815 
    108 H108       25.5118   29.7882    6.8244 H         1 UNK         0.0815 
    109 H109       26.2183   28.9545    8.2104 H         1 UNK         0.0815 
    110 H110       27.2865   29.4814    4.0640 H         1 UNK         0.2987 
    111 H111       27.9038   32.4013    3.7780 H         1 UNK         0.0949 
    112 H112       26.0662   30.5646    2.1495 H         1 UNK         0.0806 
    113 H113       25.5435   31.7898    3.3042 H         1 UNK         0.0806 
    114 H114       26.3599   32.2683    1.8246 H         1 UNK         0.0806 
    115 H115       28.5673   29.1492    2.5207 H         1 UNK         0.3010 
    116 H116       29.7992   29.8769    0.0953 H         1 UNK         0.0829 
    117 H117       28.9184   27.5883    0.6857 H         1 UNK         0.0813 
    118 H118       30.5714   27.5214    0.0960 H         1 UNK         0.0813 
    119 H119       30.2457   27.3728    1.8181 H         1 UNK         0.0813 
    120 H120       31.8935   30.1232   -0.5596 H         1 UNK         0.3038 
    121 H121       34.0304   30.7374   -0.5777 H         1 UNK         0.0769 
    122 H122       34.2787   28.4725    1.4883 H         1 UNK         0.0811 
    123 H123       35.5838   29.0883    0.4671 H         1 UNK         0.0811 
    124 H124       34.2144   28.2754   -0.2544 H         1 UNK         0.0811 
    125 H125       35.4939   30.0991    2.2573 H         1 UNK         0.3204 
    126 H126       35.0687   32.7993    3.4697 H         1 UNK         0.0748 
    127 H127       37.2519   32.3872    4.5692 H         1 UNK         0.0771 
    128 H128       37.3622   30.7922    3.8371 H         1 UNK         0.0771 
    129 H129       37.4289   32.2387    2.8300 H         1 UNK         0.0771 
    130 H130       33.6863   29.8246    3.6955 H         1 UNK         0.2980 
    131 H131       33.9235   29.3317    6.5636 H         1 UNK         0.0545 
    132 H132       31.4863   30.7324    4.3122 H         1 UNK         0.3459 
    133 H133       30.4284   31.3049    5.5988 H         1 UNK         0.3459 
    134 H134       32.4368   27.4124    6.1363 H         1 UNK         0.0616 
    135 H135       32.1798   27.9117    4.4850 H         1 UNK         0.0616 
    136 H136       34.9288   24.7424    5.4050 H         1 UNK         0.0634 
    137 H137       33.7152   25.4075    6.4668 H         1 UNK         0.0634 
@<TRIPOS>BOND
     1    1    2 1    
     2    1   72 1    
     3    1   73 1    
     4    1   74 1    
     5    2    3 2    
     6    2    4 am   BACKBONE|DICT|INTERRES
     7    4    5 1    
     8    4   75 1    
     9    5    6 1    
    10    5   35 1    
    11    5   76 1    
    12    6    7 1    
    13    6   77 1    
    14    6   78 1    
    15    7    8 1    
    16    8    9 1    
    17    8   79 1    
    18    8   80 1    
    19    9   10 ar   
    20    9   14 ar   
    21   10   11 ar   
    22   10   81 1    
    23   11   12 ar   
    24   11   71 1    
    25   12   13 ar   
    26   12   82 1    
    27   13   14 ar   
    28   13   15 1    
    29   14   83 1    
    30   15   16 1    
    31   15   84 1    
    32   15   85 1    
    33   16   17 1    
    34   17   18 1    
    35   17   86 1    
    36   17   87 1    
    37   18   19 1    
    38   18   37 1    
    39   18   88 1    
    40   19   20 am   BACKBONE|DICT|INTERRES
    41   19   89 1    
    42   20   21 2    
    43   20   22 1    
    44   22   23 1    
    45   22   24 1    
    46   22   90 1    
    47   23   91 1    
    48   23   92 1    
    49   23   93 1    
    50   24   25 am   BACKBONE|DICT|INTERRES
    51   24   94 1    
    52   25   26 2    
    53   25   27 1    
    54   27   28 1    
    55   27   29 1    
    56   27   95 1    
    57   28   96 1    
    58   28   97 1    
    59   28   98 1    
    60   29   30 am   BACKBONE|DICT|INTERRES
    61   29   99 1    
    62   30   31 2    
    63   30   32 1    
    64   32   33 1    
    65   32   34 1    
    66   32  100 1    
    67   33  101 1    
    68   33  102 1    
    69   33  103 1    
    70   34   35 am   BACKBONE|DICT|INTERRES
    71   34  104 1    
    72   35   36 2    
    73   37   38 2    
    74   37   39 am   BACKBONE|DICT|INTERRES
    75   39   40 1    
    76   39  105 1    
    77   40   41 1    
    78   40   42 1    
    79   40  106 1    
    80   41  107 1    
    81   41  108 1    
    82   41  109 1    
    83   42   43 2    
    84   42   44 am   BACKBONE|DICT|INTERRES
    85   44   45 1    
    86   44  110 1    
    87   45   46 1    
    88   45   47 1    
    89   45  111 1    
    90   46  112 1    
    91   46  113 1    
    92   46  114 1    
    93   47   48 2    
    94   47   49 am   BACKBONE|DICT|INTERRES
    95   49   50 1    
    96   49  115 1    
    97   50   51 1    
    98   50   52 1    
    99   50  116 1    
   100   51  117 1    
   101   51  118 1    
   102   51  119 1    
   103   52   53 2    
   104   52   54 am   BACKBONE|DICT|INTERRES
   105   54   55 1    
   106   54  120 1    
   107   55   56 1    
   108   55   57 1    
   109   55  121 1    
   110   56  122 1    
   111   56  123 1    
   112   56  124 1    
   113   57   58 2    
   114   57   59 am   BACKBONE|DICT|INTERRES
   115   59   60 1    
   116   59  125 1    
   117   60   61 1    
   118   60   62 1    
   119   60  126 1    
   120   61  127 1    
   121   61  128 1    
   122   61  129 1    
   123   62   63 2    
   124   62   64 am   BACKBONE|DICT|INTERRES
   125   64   65 1    
   126   64  130 1    
   127   65   66 1    
   128   65   69 1    
   129   65  131 1    
   130   66   67 am   BACKBONE|DICT|INTERRES
   131   66   68 2    
   132   67  132 1    
   133   67  133 1    
   134   69   70 1    
   135   69  134 1    
   136   69  135 1    
   137   70   71 1    
   138   71  136 1    
   139   71  137 1    
@<TRIPOS>SUBSTRUCTURE
     1 UNK         1 GROUP             0       ****    0 ROOT    
