@<TRIPOS>MOLECULE
3R136
137   139    1
SMALL
USER_CHARGES


@<TRIPOS>ATOM
      1 CA         28.0836   16.2497   -0.3530 C.3       0 UNK        -0.1979 
      2 C          28.3021   17.6863   -0.8050 C.2       0 UNK         0.4864 
      3 O          28.4448   17.9351   -2.0036 O.2       0 UNK        -0.5359 
      4 N          28.3390   18.6296    0.1446 N.am      1 UNK        -0.4318 
      5 CA         28.4926   20.0664   -0.1068 C.3       1 UNK         0.0824 
      6 C6         28.8524   20.8414    1.1845 C.3       12 UNK        -0.0944 
      7 S7         30.4709   20.3437    1.8643 S.3       12 UNK        -0.2672 
      8 C8         31.5030   21.7953    1.4486 C.3       12 UNK         0.0333 
      9 C9         31.3568   23.0123    2.3686 C.ar      12 UNK        -0.0807 
     10 C10        32.3330   24.0120    2.3028 C.ar      12 UNK        -0.0894 
     11 C11        32.2603   25.1427    3.1217 C.ar      12 UNK        -0.0804 
     12 C12        31.1869   25.2876    4.0050 C.ar      12 UNK        -0.0824 
     13 C13        30.1950   24.3065    4.0762 C.ar      12 UNK        -0.0762 
     14 C14        30.2911   23.1716    3.2652 C.ar      12 UNK        -0.0782 
     15 C15        29.0234   24.4474    5.0373 C.3       12 UNK         0.0230 
     16 S16        27.4601   24.6930    4.1367 S.3       12 UNK        -0.2608 
     17 C17        27.1532   26.4787    4.3538 C.3       12 UNK        -0.0989 
     18 CA         28.0840   27.4113    3.5365 C.3       5 UNK         0.0716 
     19 N          28.2397   26.9721    2.1459 N.am      5 UNK        -0.4135 
     20 C          28.9569   27.5865    1.1940 C.2       4 UNK         0.5031 
     21 O          29.5916   28.6257    1.3732 O.2       4 UNK        -0.5229 
     22 CA         28.8953   26.9817   -0.2191 C.3       4 UNK         0.0329 
     23 CB         30.0133   25.9397   -0.3919 C.3       4 UNK        -0.2001 
     24 N          27.6092   26.3691   -0.5811 N.am      4 UNK        -0.4303 
     25 C          26.3803   26.8924   -0.4386 C.2       3 UNK         0.5044 
     26 O          26.1656   27.9883    0.0815 O.2       3 UNK        -0.5152 
     27 CA         25.1790   26.0643   -0.9490 C.3       3 UNK         0.0319 
     28 CB         24.2638   26.9184   -1.8445 C.3       3 UNK        -0.2001 
     29 N          25.5339   24.8381   -1.6767 N.am      3 UNK        -0.4354 
     30 C          26.0306   23.7189   -1.1328 C.2       2 UNK         0.4964 
     31 O          26.2614   23.6058    0.0726 O.2       2 UNK        -0.5047 
     32 CA         26.3550   22.5597   -2.0993 C.3       2 UNK         0.0288 
     33 CB         26.7953   23.0440   -3.4969 C.3       2 UNK        -0.2113 
     34 N          27.4150   21.7166   -1.5450 N.am      2 UNK        -0.4145 
     35 C          27.2200   20.6656   -0.7388 C.2       1 UNK         0.5006 
     36 O          26.1094   20.2049   -0.4563 O.2       1 UNK        -0.5103 
     37 C          27.5981   28.8717    3.6775 C.2       5 UNK         0.5055 
     38 O          27.9439   29.5228    4.6642 O.2       5 UNK        -0.5220 
     39 N          26.8367   29.3722    2.6895 N.am      6 UNK        -0.4450 
     40 CA         26.3357   30.7483    2.6225 C.3       6 UNK         0.0367 
     41 CB         25.3577   30.8749    1.4436 C.3       6 UNK        -0.1929 
     42 C          27.4370   31.8216    2.5222 C.2       6 UNK         0.5070 
     43 O          27.1684   32.9768    2.8532 O.2       6 UNK        -0.5237 
     44 N          28.6517   31.4409    2.0951 N.am      7 UNK        -0.4739 
     45 CA         29.8300   32.3138    2.0978 C.3       7 UNK         0.0276 
     46 CB         30.9038   31.7256    1.1680 C.3       7 UNK        -0.1927 
     47 C          30.3949   32.5639    3.5101 C.2       7 UNK         0.5013 
     48 O          31.1297   33.5365    3.6910 O.2       7 UNK        -0.5193 
     49 N          30.0404   31.7062    4.4824 N.am      8 UNK        -0.4253 
     50 CA         30.3999   31.7761    5.9026 C.3       8 UNK         0.0242 
     51 CB         29.5798   32.8864    6.5981 C.3       8 UNK        -0.2000 
     52 C          31.9226   31.8926    6.1039 C.2       8 UNK         0.4948 
     53 O          32.6478   30.9749    5.7197 O.2       8 UNK        -0.5275 
     54 N          32.3886   33.0226    6.6537 N.am      9 UNK        -0.4246 
     55 CA         33.8036   33.3371    6.8705 C.3       9 UNK         0.0261 
     56 CB         33.9170   34.6676    7.6317 C.3       9 UNK        -0.1959 
     57 C          34.6469   33.3817    5.5822 C.2       9 UNK         0.5033 
     58 O          35.8409   33.0848    5.6437 O.2       9 UNK        -0.5390 
     59 N          34.0265   33.7121    4.4385 N.am      10 UNK        -0.4215 
     60 CA         34.6812   33.7058    3.1268 C.3       10 UNK         0.0240 
     61 CB         33.9188   34.6257    2.1581 C.3       10 UNK        -0.1982 
     62 C          34.8518   32.2913    2.5399 C.2       10 UNK         0.4970 
     63 O          35.5938   32.1437    1.5681 O.2       10 UNK        -0.4916 
     64 N          34.1949   31.2806    3.1295 N.am      11 UNK        -0.4279 
     65 CA         34.3849   29.8617    2.7947 C.3       11 UNK         0.1003 
     66 C          35.7141   29.2577    3.3429 C.2       11 UNK         0.5709 
     67 N          36.4293   29.9232    4.2444 N.am      11 UNK        -0.7358 
     68 O          36.1176   28.1734    2.9308 O.2       11 UNK        -0.4999 
     69 C69        33.1464   29.0212    3.2106 C.3       12 UNK        -0.0954 
     70 S70        32.8234   27.6309    2.0750 S.3       12 UNK        -0.2268 
     71 C71        33.3504   26.2003    3.0663 C.3       12 UNK         0.0203 
     72 H72        27.1750   15.8495   -0.8022 H         1 UNK         0.0888 
     73 H73        28.9215   15.6265   -0.6643 H         1 UNK         0.0888 
     74 H74        27.9885   16.1731    0.7300 H         1 UNK         0.0888 
     75 H75        28.2074   18.3693    1.1112 H         1 UNK         0.3017 
     76 H76        29.3103   20.1901   -0.8208 H         1 UNK         0.0873 
     77 H77        28.8631   21.9177    0.9985 H         1 UNK         0.0745 
     78 H78        28.0928   20.6808    1.9523 H         1 UNK         0.0745 
     79 H79        32.5436   21.4676    1.4691 H         1 UNK         0.0705 
     80 H80        31.2996   22.0982    0.4205 H         1 UNK         0.0705 
     81 H81        33.1616   23.9054    1.6155 H         1 UNK         0.1334 
     82 H82        31.1296   26.1643    4.6355 H         1 UNK         0.1417 
     83 H83        29.5179   22.4219    3.3430 H         1 UNK         0.1562 
     84 H84        29.1877   25.2621    5.7440 H         1 UNK         0.0748 
     85 H85        28.9439   23.5383    5.6351 H         1 UNK         0.0748 
     86 H86        27.2168   26.7162    5.4178 H         1 UNK         0.0940 
     87 H87        26.1108   26.6492    4.0755 H         1 UNK         0.0940 
     88 H88        29.0800   27.3713    3.9801 H         1 UNK         0.0703 
     89 H89        27.7572   26.1190    1.9024 H         1 UNK         0.3081 
     90 H90        29.0702   27.7956   -0.9252 H         1 UNK         0.0719 
     91 H91        30.9875   26.3705   -0.1554 H         1 UNK         0.0809 
     92 H92        29.8720   25.0822    0.2681 H         1 UNK         0.0809 
     93 H93        30.0645   25.5731   -1.4171 H         1 UNK         0.0809 
     94 H94        27.6611   25.4512   -0.9954 H         1 UNK         0.2990 
     95 H95        24.6066   25.7746   -0.0653 H         1 UNK         0.0690 
     96 H96        23.9125   27.8067   -1.3174 H         1 UNK         0.0788 
     97 H97        23.3790   26.3620   -2.1547 H         1 UNK         0.0788 
     98 H98        24.7816   27.2568   -2.7429 H         1 UNK         0.0788 
     99 H99        25.3974   24.8602   -2.6775 H         1 UNK         0.2993 
    100 H100       25.4427   21.9701   -2.2141 H         1 UNK         0.0949 
    101 H101       27.0968   22.2049   -4.1247 H         1 UNK         0.0767 
    102 H102       25.9836   23.5478   -4.0229 H         1 UNK         0.0767 
    103 H103       27.6381   23.7347   -3.4428 H         1 UNK         0.0767 
    104 H104       28.3599   22.0395   -1.6938 H         1 UNK         0.3013 
    105 H105       26.6283   28.7834    1.8875 H         1 UNK         0.3121 
    106 H106       25.7843   30.9398    3.5453 H         1 UNK         0.0774 
    107 H107       24.9180   31.8725    1.4053 H         1 UNK         0.0815 
    108 H108       25.8555   30.7012    0.4887 H         1 UNK         0.0815 
    109 H109       24.5371   30.1622    1.5278 H         1 UNK         0.0815 
    110 H110       28.8060   30.4701    1.8373 H         1 UNK         0.2987 
    111 H111       29.5375   33.2870    1.6974 H         1 UNK         0.0949 
    112 H112       31.2149   30.7310    1.4837 H         1 UNK         0.0806 
    113 H113       30.5384   31.6472    0.1441 H         1 UNK         0.0806 
    114 H114       31.7954   32.3519    1.1452 H         1 UNK         0.0806 
    115 H115       29.4240   30.9391    4.2371 H         1 UNK         0.3010 
    116 H116       30.1071   30.8215    6.3425 H         1 UNK         0.0829 
    117 H117       29.7793   33.8737    6.1794 H         1 UNK         0.0813 
    118 H118       28.5110   32.6996    6.4912 H         1 UNK         0.0813 
    119 H119       29.7879   32.9240    7.6684 H         1 UNK         0.0813 
    120 H120       31.7206   33.7338    6.9138 H         1 UNK         0.3038 
    121 H121       34.2193   32.5471    7.4996 H         1 UNK         0.0769 
    122 H122       33.4894   35.4955    7.0646 H         1 UNK         0.0811 
    123 H123       34.9608   34.9148    7.8317 H         1 UNK         0.0811 
    124 H124       33.4082   34.6199    8.5947 H         1 UNK         0.0811 
    125 H125       33.0244   33.8810    4.4436 H         1 UNK         0.3204 
    126 H126       35.6850   34.1199    3.2451 H         1 UNK         0.0748 
    127 H127       34.4330   34.6922    1.1983 H         1 UNK         0.0771 
    128 H128       32.9104   34.2671    1.9590 H         1 UNK         0.0771 
    129 H129       33.8413   35.6389    2.5527 H         1 UNK         0.0771 
    130 H130       33.6306   31.4608    3.9520 H         1 UNK         0.2980 
    131 H131       34.4644   29.8144    1.7069 H         1 UNK         0.0545 
    132 H132       37.2897   29.5213    4.5811 H         1 UNK         0.3459 
    133 H133       36.1218   30.8193    4.5920 H         1 UNK         0.3459 
    134 H134       32.2469   29.6367    3.1901 H         1 UNK         0.0616 
    135 H135       33.2226   28.6809    4.2444 H         1 UNK         0.0616 
    136 H136       34.2622   25.7913    2.6285 H         1 UNK         0.0634 
    137 H137       33.6150   26.4976    4.0813 H         1 UNK         0.0634 
@<TRIPOS>BOND
     1    1    2 1    
     2    1   72 1    
     3    1   73 1    
     4    1   74 1    
     5    2    3 2    
     6    2    4 am   BACKBONE|DICT|INTERRES
     7    4    5 1    
     8    4   75 1    
     9    5    6 1    
    10    5   35 1    
    11    5   76 1    
    12    6    7 1    
    13    6   77 1    
    14    6   78 1    
    15    7    8 1    
    16    8    9 1    
    17    8   79 1    
    18    8   80 1    
    19    9   10 ar   
    20    9   14 ar   
    21   10   11 ar   
    22   10   81 1    
    23   11   12 ar   
    24   11   71 1    
    25   12   13 ar   
    26   12   82 1    
    27   13   14 ar   
    28   13   15 1    
    29   14   83 1    
    30   15   16 1    
    31   15   84 1    
    32   15   85 1    
    33   16   17 1    
    34   17   18 1    
    35   17   86 1    
    36   17   87 1    
    37   18   19 1    
    38   18   37 1    
    39   18   88 1    
    40   19   20 am   BACKBONE|DICT|INTERRES
    41   19   89 1    
    42   20   21 2    
    43   20   22 1    
    44   22   23 1    
    45   22   24 1    
    46   22   90 1    
    47   23   91 1    
    48   23   92 1    
    49   23   93 1    
    50   24   25 am   BACKBONE|DICT|INTERRES
    51   24   94 1    
    52   25   26 2    
    53   25   27 1    
    54   27   28 1    
    55   27   29 1    
    56   27   95 1    
    57   28   96 1    
    58   28   97 1    
    59   28   98 1    
    60   29   30 am   BACKBONE|DICT|INTERRES
    61   29   99 1    
    62   30   31 2    
    63   30   32 1    
    64   32   33 1    
    65   32   34 1    
    66   32  100 1    
    67   33  101 1    
    68   33  102 1    
    69   33  103 1    
    70   34   35 am   BACKBONE|DICT|INTERRES
    71   34  104 1    
    72   35   36 2    
    73   37   38 2    
    74   37   39 am   BACKBONE|DICT|INTERRES
    75   39   40 1    
    76   39  105 1    
    77   40   41 1    
    78   40   42 1    
    79   40  106 1    
    80   41  107 1    
    81   41  108 1    
    82   41  109 1    
    83   42   43 2    
    84   42   44 am   BACKBONE|DICT|INTERRES
    85   44   45 1    
    86   44  110 1    
    87   45   46 1    
    88   45   47 1    
    89   45  111 1    
    90   46  112 1    
    91   46  113 1    
    92   46  114 1    
    93   47   48 2    
    94   47   49 am   BACKBONE|DICT|INTERRES
    95   49   50 1    
    96   49  115 1    
    97   50   51 1    
    98   50   52 1    
    99   50  116 1    
   100   51  117 1    
   101   51  118 1    
   102   51  119 1    
   103   52   53 2    
   104   52   54 am   BACKBONE|DICT|INTERRES
   105   54   55 1    
   106   54  120 1    
   107   55   56 1    
   108   55   57 1    
   109   55  121 1    
   110   56  122 1    
   111   56  123 1    
   112   56  124 1    
   113   57   58 2    
   114   57   59 am   BACKBONE|DICT|INTERRES
   115   59   60 1    
   116   59  125 1    
   117   60   61 1    
   118   60   62 1    
   119   60  126 1    
   120   61  127 1    
   121   61  128 1    
   122   61  129 1    
   123   62   63 2    
   124   62   64 am   BACKBONE|DICT|INTERRES
   125   64   65 1    
   126   64  130 1    
   127   65   66 1    
   128   65   69 1    
   129   65  131 1    
   130   66   67 am   BACKBONE|DICT|INTERRES
   131   66   68 2    
   132   67  132 1    
   133   67  133 1    
   134   69   70 1    
   135   69  134 1    
   136   69  135 1    
   137   70   71 1    
   138   71  136 1    
   139   71  137 1    
@<TRIPOS>SUBSTRUCTURE
     1 UNK         1 GROUP             0       ****    0 ROOT    
