@<TRIPOS>MOLECULE
3R136
137   139    1
SMALL
USER_CHARGES


@<TRIPOS>ATOM
      1 CA         30.1497   21.5435    4.7955 C.3       0 UNK        -0.1979 
      2 C          29.5430   21.0788    3.4804 C.2       0 UNK         0.4864 
      3 O          28.9009   20.0277    3.4417 O.2       0 UNK        -0.5359 
      4 N          29.7517   21.8556    2.4103 N.am      1 UNK        -0.4318 
      5 CA         29.2175   21.6122    1.0670 C.3       1 UNK         0.0824 
      6 C6         30.2321   21.9833   -0.0547 C.3       12 UNK        -0.0944 
      7 S7         31.8577   21.1718    0.1389 S.3       12 UNK        -0.2672 
      8 C8         32.9703   22.5943    0.3999 C.3       12 UNK         0.0333 
      9 C9         32.7592   23.2420    1.7614 C.ar      12 UNK        -0.0807 
     10 C10        33.4421   22.7600    2.8836 C.ar      12 UNK        -0.0894 
     11 C11        33.2445   23.3442    4.1390 C.ar      12 UNK        -0.0804 
     12 C12        32.3351   24.3950    4.2706 C.ar      12 UNK        -0.0824 
     13 C13        31.6687   24.9012    3.1538 C.ar      12 UNK        -0.0762 
     14 C14        31.8914   24.3302    1.8994 C.ar      12 UNK        -0.0782 
     15 C15        30.7200   26.0735    3.3090 C.3       12 UNK         0.0230 
     16 S16        31.5481   27.6369    2.8758 S.3       12 UNK        -0.2608 
     17 C17        31.1227   27.9565    1.1222 C.3       12 UNK        -0.0989 
     18 CA         29.6526   27.6738    0.6986 C.3       5 UNK         0.0716 
     19 N          28.6570   28.1036    1.6861 N.am      5 UNK        -0.4135 
     20 C          28.3775   29.3563    2.0780 C.2       4 UNK         0.5031 
     21 O          28.9922   30.3507    1.6844 O.2       4 UNK        -0.5229 
     22 CA         27.1690   29.5249    3.0280 C.3       4 UNK         0.0329 
     23 CB         26.4464   30.8696    2.8154 C.3       4 UNK        -0.2001 
     24 N          26.2037   28.4139    2.9718 N.am      4 UNK        -0.4303 
     25 C          25.5556   27.9645    1.8864 C.2       3 UNK         0.5044 
     26 O          25.6506   28.4649    0.7628 O.2       3 UNK        -0.5152 
     27 CA         24.7292   26.6811    2.0711 C.3       3 UNK         0.0319 
     28 CB         23.2285   26.9749    1.9169 C.3       3 UNK        -0.2001 
     29 N          25.1258   25.6465    1.1100 N.am      3 UNK        -0.4354 
     30 C          26.3616   25.1412    0.9833 C.2       2 UNK         0.4964 
     31 O          27.3151   25.4667    1.6971 O.2       2 UNK        -0.5047 
     32 CA         26.5721   24.1531   -0.1777 C.3       2 UNK         0.0288 
     33 CB         26.7454   24.9207   -1.4995 C.3       2 UNK        -0.2113 
     34 N          27.7469   23.3013    0.0207 N.am      2 UNK        -0.4145 
     35 C          27.8532   22.3308    0.9403 C.2       1 UNK         0.5006 
     36 O          26.9182   21.9929    1.6704 O.2       1 UNK        -0.5103 
     37 C          29.3274   28.1992   -0.7201 C.2       5 UNK         0.5055 
     38 O          30.2415   28.3575   -1.5305 O.2       5 UNK        -0.5220 
     39 N          28.0374   28.4760   -0.9862 N.am      6 UNK        -0.4450 
     40 CA         27.4936   29.1397   -2.1779 C.3       6 UNK         0.0367 
     41 CB         27.7060   28.2853   -3.4463 C.3       6 UNK        -0.1929 
     42 C          27.9852   30.5946   -2.3427 C.2       6 UNK         0.5070 
     43 O          28.0047   31.1095   -3.4621 O.2       6 UNK        -0.5237 
     44 N          28.3653   31.2368   -1.2315 N.am      7 UNK        -0.4739 
     45 CA         28.8663   32.6046   -1.1680 C.3       7 UNK         0.0276 
     46 CB         30.3969   32.6018   -1.3782 C.3       7 UNK        -0.1927 
     47 C          28.3979   33.2165    0.1608 C.2       7 UNK         0.5013 
     48 O          27.1893   33.3167    0.3794 O.2       7 UNK        -0.5193 
     49 N          29.3439   33.6017    1.0229 N.am      8 UNK        -0.4253 
     50 CA         29.1104   34.1264    2.3659 C.3       8 UNK         0.0242 
     51 CB         28.8985   35.6530    2.3060 C.3       8 UNK        -0.2000 
     52 C          30.2794   33.7054    3.2688 C.2       8 UNK         0.4948 
     53 O          30.9084   34.5609    3.8951 O.2       8 UNK        -0.5275 
     54 N          30.5852   32.4019    3.2779 N.am      9 UNK        -0.4246 
     55 CA         31.7144   31.8122    3.9995 C.3       9 UNK         0.0261 
     56 CB         32.7610   31.3532    2.9668 C.3       9 UNK        -0.1959 
     57 C          31.2481   30.6482    4.8877 C.2       9 UNK         0.5033 
     58 O          30.0679   30.2902    4.8763 O.2       9 UNK        -0.5390 
     59 N          32.1935   30.0780    5.6443 N.am      10 UNK        -0.4215 
     60 CA         31.9978   28.9102    6.4998 C.3       10 UNK         0.0240 
     61 CB         31.5034   29.3530    7.8916 C.3       10 UNK        -0.1982 
     62 C          33.3100   28.1148    6.5516 C.2       10 UNK         0.4970 
     63 O          34.0413   28.2006    7.5392 O.2       10 UNK        -0.4916 
     64 N          33.5963   27.3829    5.4668 N.am      11 UNK        -0.4279 
     65 CA         34.7942   26.5412    5.2817 C.3       11 UNK         0.1003 
     66 C          36.1232   27.3408    5.1108 C.2       11 UNK         0.5709 
     67 N          36.0753   28.5937    4.6730 N.am      11 UNK        -0.7358 
     68 O          37.2122   26.8257    5.3529 O.2       11 UNK        -0.4999 
     69 C69        34.8782   25.3840    6.3274 C.3       12 UNK        -0.0954 
     70 S70        35.5308   23.8254    5.6289 S.3       12 UNK        -0.2268 
     71 C71        34.0152   22.8495    5.3537 C.3       12 UNK         0.0203 
     72 H72        31.1716   21.1771    4.8895 H         1 UNK         0.0888 
     73 H73        30.1626   22.6308    4.8619 H         1 UNK         0.0888 
     74 H74        29.5717   21.1658    5.6387 H         1 UNK         0.0888 
     75 H75        30.3145   22.6886    2.5112 H         1 UNK         0.3017 
     76 H76        29.0075   20.5459    0.9587 H         1 UNK         0.0873 
     77 H77        30.3818   23.0601   -0.1199 H         1 UNK         0.0745 
     78 H78        29.8374   21.6774   -1.0256 H         1 UNK         0.0745 
     79 H79        32.8295   23.3232   -0.3999 H         1 UNK         0.0705 
     80 H80        34.0022   22.2504    0.3148 H         1 UNK         0.0705 
     81 H81        34.1318   21.9336    2.7778 H         1 UNK         0.1334 
     82 H82        32.1647   24.8376    5.2418 H         1 UNK         0.1417 
     83 H83        31.3877   24.7373    1.0342 H         1 UNK         0.1562 
     84 H84        30.3837   26.1459    4.3444 H         1 UNK         0.0748 
     85 H85        29.8183   25.8999    2.7268 H         1 UNK         0.0748 
     86 H86        31.8071   27.3769    0.5003 H         1 UNK         0.0940 
     87 H87        31.3634   29.0023    0.9261 H         1 UNK         0.0940 
     88 H88        29.5401   26.5931    0.6137 H         1 UNK         0.0703 
     89 H89        28.0736   27.3527    2.0393 H         1 UNK         0.3081 
     90 H90        27.5788   29.5233    4.0388 H         1 UNK         0.0719 
     91 H91        25.5860   30.9702    3.4766 H         1 UNK         0.0809 
     92 H92        26.0985   30.9858    1.7882 H         1 UNK         0.0809 
     93 H93        27.1135   31.7031    3.0283 H         1 UNK         0.0809 
     94 H94        26.0750   27.9123    3.8403 H         1 UNK         0.2990 
     95 H95        24.9018   26.2837    3.0734 H         1 UNK         0.0690 
     96 H96        22.6278   26.0821    2.0920 H         1 UNK         0.0788 
     97 H97        22.9912   27.3505    0.9204 H         1 UNK         0.0788 
     98 H98        22.9029   27.7290    2.6348 H         1 UNK         0.0788 
     99 H99        24.4154   25.3533    0.4551 H         1 UNK         0.2993 
    100 H100       25.6911   23.5114   -0.2496 H         1 UNK         0.0949 
    101 H101       27.6356   25.5505   -1.4848 H         1 UNK         0.0767 
    102 H102       26.8318   24.2389   -2.3459 H         1 UNK         0.0767 
    103 H103       25.8914   25.5704   -1.6969 H         1 UNK         0.0767 
    104 H104       28.5571   23.5264   -0.5355 H         1 UNK         0.3013 
    105 H105       27.3534   28.3320   -0.2475 H         1 UNK         0.3121 
    106 H106       26.4178   29.2102   -2.0099 H         1 UNK         0.0774 
    107 H107       27.1729   28.7111   -4.2971 H         1 UNK         0.0815 
    108 H108       28.7584   28.2238   -3.7240 H         1 UNK         0.0815 
    109 H109       27.3331   27.2708   -3.3109 H         1 UNK         0.0815 
    110 H110       28.3091   30.7599   -0.3379 H         1 UNK         0.2987 
    111 H111       28.4073   33.2008   -1.9597 H         1 UNK         0.0949 
    112 H112       30.6530   32.2014   -2.3594 H         1 UNK         0.0806 
    113 H113       30.8081   33.6112   -1.3333 H         1 UNK         0.0806 
    114 H114       30.9100   31.9898   -0.6346 H         1 UNK         0.0806 
    115 H115       30.3120   33.4524    0.7737 H         1 UNK         0.3010 
    116 H116       28.2109   33.6750    2.7860 H         1 UNK         0.0829 
    117 H117       28.0366   35.9098    1.6899 H         1 UNK         0.0813 
    118 H118       28.7172   36.0624    3.3006 H         1 UNK         0.0813 
    119 H119       29.7693   36.1639    1.8937 H         1 UNK         0.0813 
    120 H120       29.9881   31.7400    2.7865 H         1 UNK         0.3038 
    121 H121       32.1743   32.5500    4.6603 H         1 UNK         0.0769 
    122 H122       32.3584   30.5884    2.3039 H         1 UNK         0.0811 
    123 H123       33.0931   32.1863    2.3471 H         1 UNK         0.0811 
    124 H124       33.6488   30.9389    3.4443 H         1 UNK         0.0811 
    125 H125       33.1361   30.4411    5.6096 H         1 UNK         0.3204 
    126 H126       31.2400   28.2572    6.0605 H         1 UNK         0.0748 
    127 H127       31.3884   28.4957    8.5561 H         1 UNK         0.0771 
    128 H128       32.1987   30.0463    8.3666 H         1 UNK         0.0771 
    129 H129       30.5329   29.8454    7.8275 H         1 UNK         0.0771 
    130 H130       32.9626   27.4159    4.6774 H         1 UNK         0.2980 
    131 H131       34.6392   26.0866    4.3029 H         1 UNK         0.0545 
    132 H132       36.9350   29.1067    4.5567 H         1 UNK         0.3459 
    133 H133       35.1959   29.0183    4.4337 H         1 UNK         0.3459 
    134 H134       35.4974   25.6729    7.1784 H         1 UNK         0.0616 
    135 H135       33.8972   25.1755    6.7549 H         1 UNK         0.0616 
    136 H136       33.3860   22.8780    6.2446 H         1 UNK         0.0634 
    137 H137       34.2948   21.8042    5.2143 H         1 UNK         0.0634 
@<TRIPOS>BOND
     1    1    2 1    
     2    1   72 1    
     3    1   73 1    
     4    1   74 1    
     5    2    3 2    
     6    2    4 am   BACKBONE|DICT|INTERRES
     7    4    5 1    
     8    4   75 1    
     9    5    6 1    
    10    5   35 1    
    11    5   76 1    
    12    6    7 1    
    13    6   77 1    
    14    6   78 1    
    15    7    8 1    
    16    8    9 1    
    17    8   79 1    
    18    8   80 1    
    19    9   10 ar   
    20    9   14 ar   
    21   10   11 ar   
    22   10   81 1    
    23   11   12 ar   
    24   11   71 1    
    25   12   13 ar   
    26   12   82 1    
    27   13   14 ar   
    28   13   15 1    
    29   14   83 1    
    30   15   16 1    
    31   15   84 1    
    32   15   85 1    
    33   16   17 1    
    34   17   18 1    
    35   17   86 1    
    36   17   87 1    
    37   18   19 1    
    38   18   37 1    
    39   18   88 1    
    40   19   20 am   BACKBONE|DICT|INTERRES
    41   19   89 1    
    42   20   21 2    
    43   20   22 1    
    44   22   23 1    
    45   22   24 1    
    46   22   90 1    
    47   23   91 1    
    48   23   92 1    
    49   23   93 1    
    50   24   25 am   BACKBONE|DICT|INTERRES
    51   24   94 1    
    52   25   26 2    
    53   25   27 1    
    54   27   28 1    
    55   27   29 1    
    56   27   95 1    
    57   28   96 1    
    58   28   97 1    
    59   28   98 1    
    60   29   30 am   BACKBONE|DICT|INTERRES
    61   29   99 1    
    62   30   31 2    
    63   30   32 1    
    64   32   33 1    
    65   32   34 1    
    66   32  100 1    
    67   33  101 1    
    68   33  102 1    
    69   33  103 1    
    70   34   35 am   BACKBONE|DICT|INTERRES
    71   34  104 1    
    72   35   36 2    
    73   37   38 2    
    74   37   39 am   BACKBONE|DICT|INTERRES
    75   39   40 1    
    76   39  105 1    
    77   40   41 1    
    78   40   42 1    
    79   40  106 1    
    80   41  107 1    
    81   41  108 1    
    82   41  109 1    
    83   42   43 2    
    84   42   44 am   BACKBONE|DICT|INTERRES
    85   44   45 1    
    86   44  110 1    
    87   45   46 1    
    88   45   47 1    
    89   45  111 1    
    90   46  112 1    
    91   46  113 1    
    92   46  114 1    
    93   47   48 2    
    94   47   49 am   BACKBONE|DICT|INTERRES
    95   49   50 1    
    96   49  115 1    
    97   50   51 1    
    98   50   52 1    
    99   50  116 1    
   100   51  117 1    
   101   51  118 1    
   102   51  119 1    
   103   52   53 2    
   104   52   54 am   BACKBONE|DICT|INTERRES
   105   54   55 1    
   106   54  120 1    
   107   55   56 1    
   108   55   57 1    
   109   55  121 1    
   110   56  122 1    
   111   56  123 1    
   112   56  124 1    
   113   57   58 2    
   114   57   59 am   BACKBONE|DICT|INTERRES
   115   59   60 1    
   116   59  125 1    
   117   60   61 1    
   118   60   62 1    
   119   60  126 1    
   120   61  127 1    
   121   61  128 1    
   122   61  129 1    
   123   62   63 2    
   124   62   64 am   BACKBONE|DICT|INTERRES
   125   64   65 1    
   126   64  130 1    
   127   65   66 1    
   128   65   69 1    
   129   65  131 1    
   130   66   67 am   BACKBONE|DICT|INTERRES
   131   66   68 2    
   132   67  132 1    
   133   67  133 1    
   134   69   70 1    
   135   69  134 1    
   136   69  135 1    
   137   70   71 1    
   138   71  136 1    
   139   71  137 1    
@<TRIPOS>SUBSTRUCTURE
     1 UNK         1 GROUP             0       ****    0 ROOT    
