@<TRIPOS>MOLECULE
3R136
137   139    1
SMALL
USER_CHARGES


@<TRIPOS>ATOM
      1 CA         28.0468   18.4547   -2.3571 C.3       0 UNK        -0.1979 
      2 C          28.4228   19.9279   -2.2911 C.2       0 UNK         0.4864 
      3 O          28.3779   20.6139   -3.3134 O.2       0 UNK        -0.5359 
      4 N          28.8033   20.4071   -1.1002 N.am      1 UNK        -0.4318 
      5 CA         29.1430   21.8011   -0.8087 C.3       1 UNK         0.0824 
      6 C6         30.3051   21.9133    0.2196 C.3       12 UNK        -0.0944 
      7 S7         30.0677   20.9474    1.7550 S.3       12 UNK        -0.2672 
      8 C8         31.6273   21.2832    2.6288 C.3       12 UNK         0.0333 
      9 C9         31.6939   22.7159    3.1371 C.ar      12 UNK        -0.0807 
     10 C10        32.4742   23.6659    2.4746 C.ar      12 UNK        -0.0894 
     11 C11        32.5552   24.9762    2.9533 C.ar      12 UNK        -0.0804 
     12 C12        31.8466   25.3357    4.1050 C.ar      12 UNK        -0.0824 
     13 C13        31.0471   24.3967    4.7704 C.ar      12 UNK        -0.0762 
     14 C14        30.9835   23.0877    4.2813 C.ar      12 UNK        -0.0782 
     15 C15        30.2553   24.7534    6.0289 C.3       12 UNK         0.0230 
     16 S16        29.5099   26.4215    6.0359 S.3       12 UNK        -0.2608 
     17 C17        28.5639   26.4530    4.4748 C.3       12 UNK        -0.0989 
     18 CA         28.9403   27.7029    3.6330 C.3       5 UNK         0.0716 
     19 N          29.1673   27.3946    2.2223 N.am      5 UNK        -0.4135 
     20 C          29.9178   28.1431    1.4017 C.2       4 UNK         0.5031 
     21 O          30.5963   29.0988    1.7826 O.2       4 UNK        -0.5229 
     22 CA         29.9013   27.7775   -0.0955 C.3       4 UNK         0.0329 
     23 CB         31.1206   26.9198   -0.4601 C.3       4 UNK        -0.2001 
     24 N          28.6853   27.0717   -0.5094 N.am      4 UNK        -0.4303 
     25 C          27.4686   27.6290   -0.5735 C.2       3 UNK         0.5044 
     26 O          27.2471   28.8133   -0.3328 O.2       3 UNK        -0.5152 
     27 CA         26.2936   26.6908   -0.8937 C.3       3 UNK         0.0319 
     28 CB         26.1353   26.5188   -2.4121 C.3       3 UNK        -0.2001 
     29 N          26.4119   25.3735   -0.2607 N.am      3 UNK        -0.4354 
     30 C          26.5017   25.1420    1.0553 C.2       2 UNK         0.4964 
     31 O          26.5255   26.0362    1.9017 O.2       2 UNK        -0.5047 
     32 CA         26.6316   23.6781    1.5085 C.3       2 UNK         0.0288 
     33 CB         25.2861   22.9357    1.3944 C.3       2 UNK        -0.2113 
     34 N          27.7207   22.9344    0.8564 N.am      2 UNK        -0.4145 
     35 C          27.8626   22.5784   -0.4297 C.2       1 UNK         0.5006 
     36 O          27.0421   22.8542   -1.3076 O.2       1 UNK        -0.5103 
     37 C          27.8976   28.8290    3.7639 C.2       5 UNK         0.5055 
     38 O          28.1337   29.7988    4.4859 O.2       5 UNK        -0.5220 
     39 N          26.7836   28.6976    3.0260 N.am      6 UNK        -0.4450 
     40 CA         25.7011   29.6835    2.9454 C.3       6 UNK         0.0367 
     41 CB         24.5593   29.1261    2.0816 C.3       6 UNK        -0.1929 
     42 C          26.1617   31.0550    2.4204 C.2       6 UNK         0.5070 
     43 O          25.6971   32.0802    2.9204 O.2       6 UNK        -0.5237 
     44 N          27.1050   31.0599    1.4684 N.am      7 UNK        -0.4739 
     45 CA         27.7875   32.2391    0.9245 C.3       7 UNK         0.0276 
     46 CB         28.4398   31.8572   -0.4175 C.3       7 UNK        -0.1927 
     47 C          28.7997   32.8627    1.9118 C.2       7 UNK         0.5013 
     48 O          29.9628   33.0628    1.5579 O.2       7 UNK        -0.5193 
     49 N          28.3279   33.1659    3.1292 N.am      8 UNK        -0.4253 
     50 CA         29.0305   33.8247    4.2360 C.3       8 UNK         0.0242 
     51 CB         29.2862   35.3090    3.8953 C.3       8 UNK        -0.2000 
     52 C          30.3044   33.0899    4.7032 C.2       8 UNK         0.4948 
     53 O          31.2839   33.7493    5.0564 O.2       8 UNK        -0.5275 
     54 N          30.2544   31.7477    4.7207 N.am      9 UNK        -0.4246 
     55 CA         31.3082   30.8202    5.1471 C.3       9 UNK         0.0261 
     56 CB         31.4862   30.8741    6.6790 C.3       9 UNK        -0.1959 
     57 C          32.6304   31.0243    4.3869 C.2       9 UNK         0.5033 
     58 O          33.6247   31.4437    4.9840 O.2       9 UNK        -0.5390 
     59 N          32.6330   30.7043    3.0837 N.am      10 UNK        -0.4215 
     60 CA         33.7925   30.8550    2.1910 C.3       10 UNK         0.0240 
     61 CB         33.3774   30.5008    0.7542 C.3       10 UNK        -0.1982 
     62 C          35.0319   30.0375    2.6095 C.2       10 UNK         0.4970 
     63 O          36.1509   30.4204    2.2662 O.2       10 UNK        -0.4916 
     64 N          34.8084   28.9480    3.3532 N.am      11 UNK        -0.4279 
     65 CA         35.8423   28.1181    3.9871 C.3       11 UNK         0.1003 
     66 C          36.3827   28.6940    5.3302 C.2       11 UNK         0.5709 
     67 N          35.8581   29.7933    5.8606 N.am      11 UNK        -0.7358 
     68 O          37.3165   28.1355    5.9012 O.2       11 UNK        -0.4999 
     69 C69        35.3561   26.6527    4.1475 C.3       12 UNK        -0.0954 
     70 S70        35.1696   25.8213    2.5362 S.3       12 UNK        -0.2268 
     71 C71        33.3913   25.9997    2.2013 C.3       12 UNK         0.0203 
     72 H72        27.0144   18.3458   -2.6881 H         1 UNK         0.0888 
     73 H73        28.6895   17.9347   -3.0671 H         1 UNK         0.0888 
     74 H74        28.1458   17.9642   -1.3888 H         1 UNK         0.0888 
     75 H75        28.8159   19.7921   -0.2982 H         1 UNK         0.3017 
     76 H76        29.5037   22.2695   -1.7272 H         1 UNK         0.0873 
     77 H77        31.2237   21.5574   -0.2500 H         1 UNK         0.0745 
     78 H78        30.4959   22.9586    0.4698 H         1 UNK         0.0745 
     79 H79        31.7132   20.5963    3.4720 H         1 UNK         0.0705 
     80 H80        32.4695   21.0628    1.9707 H         1 UNK         0.0705 
     81 H81        33.0244   23.3863    1.5864 H         1 UNK         0.1334 
     82 H82        31.9093   26.3483    4.4775 H         1 UNK         0.1417 
     83 H83        30.3789   22.3496    4.7913 H         1 UNK         0.1562 
     84 H84        30.9182   24.6666    6.8905 H         1 UNK         0.0748 
     85 H85        29.4525   24.0312    6.1863 H         1 UNK         0.0748 
     86 H86        27.4974   26.4077    4.7061 H         1 UNK         0.0940 
     87 H87        28.7661   25.5385    3.9160 H         1 UNK         0.0940 
     88 H88        29.8839   28.0966    4.0106 H         1 UNK         0.0703 
     89 H89        28.5931   26.6629    1.8277 H         1 UNK         0.3081 
     90 H90        29.9605   28.7113   -0.6586 H         1 UNK         0.0719 
     91 H91        32.0471   27.4331   -0.2026 H         1 UNK         0.0809 
     92 H92        31.1564   26.7164   -1.5306 H         1 UNK         0.0809 
     93 H93        31.1113   25.9630    0.0633 H         1 UNK         0.0809 
     94 H94        28.7753   26.0923   -0.7356 H         1 UNK         0.2990 
     95 H95        25.3855   27.1574   -0.5075 H         1 UNK         0.0690 
     96 H96        25.2463   25.9360   -2.6536 H         1 UNK         0.0788 
     97 H97        26.9958   26.0154   -2.8548 H         1 UNK         0.0788 
     98 H98        26.0315   27.4860   -2.9062 H         1 UNK         0.0788 
     99 H99        26.4421   24.5612   -0.8734 H         1 UNK         0.2993 
    100 H100       26.8926   23.7082    2.5679 H         1 UNK         0.0949 
    101 H101       25.3579   21.9253    1.7973 H         1 UNK         0.0767 
    102 H102       24.5079   23.4537    1.9566 H         1 UNK         0.0767 
    103 H103       24.9426   22.8598    0.3623 H         1 UNK         0.0767 
    104 H104       28.4620   22.6335    1.4786 H         1 UNK         0.3013 
    105 H105       26.6596   27.8406    2.4928 H         1 UNK         0.3121 
    106 H106       25.3218   29.8311    3.9587 H         1 UNK         0.0774 
    107 H107       24.8716   28.9768    1.0482 H         1 UNK         0.0815 
    108 H108       23.7116   29.8125    2.0685 H         1 UNK         0.0815 
    109 H109       24.1985   28.1714    2.4648 H         1 UNK         0.0815 
    110 H110       27.3676   30.1675    1.0592 H         1 UNK         0.2987 
    111 H111       27.0345   33.0035    0.7211 H         1 UNK         0.0949 
    112 H112       29.2104   31.0969   -0.2845 H         1 UNK         0.0806 
    113 H113       27.7035   31.4686   -1.1211 H         1 UNK         0.0806 
    114 H114       28.9097   32.7220   -0.8876 H         1 UNK         0.0806 
    115 H115       27.3553   32.9220    3.3032 H         1 UNK         0.3010 
    116 H116       28.3455   33.7973    5.0848 H         1 UNK         0.0829 
    117 H117       30.0040   35.4171    3.0814 H         1 UNK         0.0813 
    118 H118       28.3660   35.8135    3.6006 H         1 UNK         0.0813 
    119 H119       29.6860   35.8471    4.7558 H         1 UNK         0.0813 
    120 H120       29.3893   31.2962    4.4340 H         1 UNK         0.3038 
    121 H121       30.9616   29.8184    4.9014 H         1 UNK         0.0769 
    122 H122       32.2264   30.1451    7.0113 H         1 UNK         0.0811 
    123 H123       31.8228   31.8554    7.0154 H         1 UNK         0.0811 
    124 H124       30.5526   30.6450    7.1929 H         1 UNK         0.0811 
    125 H125       31.7862   30.3279    2.6599 H         1 UNK         0.3204 
    126 H126       34.0792   31.9083    2.2126 H         1 UNK         0.0748 
    127 H127       34.1945   30.6821    0.0546 H         1 UNK         0.0771 
    128 H128       33.0988   29.4507    0.6652 H         1 UNK         0.0771 
    129 H129       32.5286   31.1018    0.4261 H         1 UNK         0.0771 
    130 H130       33.8559   28.7306    3.5978 H         1 UNK         0.2980 
    131 H131       36.7087   28.1014    3.3230 H         1 UNK         0.0545 
    132 H132       35.0978   30.2968    5.4127 H         1 UNK         0.3459 
    133 H133       36.2372   30.1414    6.7263 H         1 UNK         0.3459 
    134 H134       36.0787   26.0648    4.7163 H         1 UNK         0.0616 
    135 H135       34.4223   26.6073    4.7092 H         1 UNK         0.0616 
    136 H136       33.0579   27.0147    2.4187 H         1 UNK         0.0634 
    137 H137       33.2482   25.8552    1.1311 H         1 UNK         0.0634 
@<TRIPOS>BOND
     1    1    2 1    
     2    1   72 1    
     3    1   73 1    
     4    1   74 1    
     5    2    3 2    
     6    2    4 am   BACKBONE|DICT|INTERRES
     7    4    5 1    
     8    4   75 1    
     9    5    6 1    
    10    5   35 1    
    11    5   76 1    
    12    6    7 1    
    13    6   77 1    
    14    6   78 1    
    15    7    8 1    
    16    8    9 1    
    17    8   79 1    
    18    8   80 1    
    19    9   10 ar   
    20    9   14 ar   
    21   10   11 ar   
    22   10   81 1    
    23   11   12 ar   
    24   11   71 1    
    25   12   13 ar   
    26   12   82 1    
    27   13   14 ar   
    28   13   15 1    
    29   14   83 1    
    30   15   16 1    
    31   15   84 1    
    32   15   85 1    
    33   16   17 1    
    34   17   18 1    
    35   17   86 1    
    36   17   87 1    
    37   18   19 1    
    38   18   37 1    
    39   18   88 1    
    40   19   20 am   BACKBONE|DICT|INTERRES
    41   19   89 1    
    42   20   21 2    
    43   20   22 1    
    44   22   23 1    
    45   22   24 1    
    46   22   90 1    
    47   23   91 1    
    48   23   92 1    
    49   23   93 1    
    50   24   25 am   BACKBONE|DICT|INTERRES
    51   24   94 1    
    52   25   26 2    
    53   25   27 1    
    54   27   28 1    
    55   27   29 1    
    56   27   95 1    
    57   28   96 1    
    58   28   97 1    
    59   28   98 1    
    60   29   30 am   BACKBONE|DICT|INTERRES
    61   29   99 1    
    62   30   31 2    
    63   30   32 1    
    64   32   33 1    
    65   32   34 1    
    66   32  100 1    
    67   33  101 1    
    68   33  102 1    
    69   33  103 1    
    70   34   35 am   BACKBONE|DICT|INTERRES
    71   34  104 1    
    72   35   36 2    
    73   37   38 2    
    74   37   39 am   BACKBONE|DICT|INTERRES
    75   39   40 1    
    76   39  105 1    
    77   40   41 1    
    78   40   42 1    
    79   40  106 1    
    80   41  107 1    
    81   41  108 1    
    82   41  109 1    
    83   42   43 2    
    84   42   44 am   BACKBONE|DICT|INTERRES
    85   44   45 1    
    86   44  110 1    
    87   45   46 1    
    88   45   47 1    
    89   45  111 1    
    90   46  112 1    
    91   46  113 1    
    92   46  114 1    
    93   47   48 2    
    94   47   49 am   BACKBONE|DICT|INTERRES
    95   49   50 1    
    96   49  115 1    
    97   50   51 1    
    98   50   52 1    
    99   50  116 1    
   100   51  117 1    
   101   51  118 1    
   102   51  119 1    
   103   52   53 2    
   104   52   54 am   BACKBONE|DICT|INTERRES
   105   54   55 1    
   106   54  120 1    
   107   55   56 1    
   108   55   57 1    
   109   55  121 1    
   110   56  122 1    
   111   56  123 1    
   112   56  124 1    
   113   57   58 2    
   114   57   59 am   BACKBONE|DICT|INTERRES
   115   59   60 1    
   116   59  125 1    
   117   60   61 1    
   118   60   62 1    
   119   60  126 1    
   120   61  127 1    
   121   61  128 1    
   122   61  129 1    
   123   62   63 2    
   124   62   64 am   BACKBONE|DICT|INTERRES
   125   64   65 1    
   126   64  130 1    
   127   65   66 1    
   128   65   69 1    
   129   65  131 1    
   130   66   67 am   BACKBONE|DICT|INTERRES
   131   66   68 2    
   132   67  132 1    
   133   67  133 1    
   134   69   70 1    
   135   69  134 1    
   136   69  135 1    
   137   70   71 1    
   138   71  136 1    
   139   71  137 1    
@<TRIPOS>SUBSTRUCTURE
     1 UNK         1 GROUP             0       ****    0 ROOT    
