@<TRIPOS>MOLECULE
3R136
137   139    1
SMALL
USER_CHARGES


@<TRIPOS>ATOM
      1 CA         24.6244   25.3885    2.8933 C.3       0 UNK        -0.1979 
      2 C          25.3520   24.1023    2.5329 C.2       0 UNK         0.4864 
      3 O          24.7591   23.0232    2.5861 O.2       0 UNK        -0.5359 
      4 N          26.6269   24.2067    2.1407 N.am      1 UNK        -0.4318 
      5 CA         27.4499   23.1030    1.6458 C.3       1 UNK         0.0824 
      6 C6         28.9360   23.5148    1.5968 C.3       12 UNK        -0.0944 
      7 S7         30.0709   22.1738    1.0995 S.3       12 UNK        -0.2672 
      8 C8         31.6502   22.7390    1.8210 C.3       12 UNK         0.0333 
      9 C9         31.9128   24.2219    1.5810 C.ar      12 UNK        -0.0807 
     10 C10        32.0956   25.0845    2.6652 C.ar      12 UNK        -0.0894 
     11 C11        32.2967   26.4524    2.4612 C.ar      12 UNK        -0.0804 
     12 C12        32.3046   26.9604    1.1575 C.ar      12 UNK        -0.0824 
     13 C13        32.1235   26.1063    0.0638 C.ar      12 UNK        -0.0762 
     14 C14        31.9457   24.7368    0.2819 C.ar      12 UNK        -0.0782 
     15 C15        32.1272   26.6544   -1.3568 C.3       12 UNK         0.0230 
     16 S16        30.6421   27.6402   -1.7361 S.3       12 UNK        -0.2608 
     17 C17        29.2895   26.4142   -1.6151 C.3       12 UNK        -0.0989 
     18 CA         27.9456   27.0710   -1.2062 C.3       5 UNK         0.0716 
     19 N          26.8032   26.2213   -1.5509 N.am      5 UNK        -0.4135 
     20 C          25.6226   26.6994   -1.9655 C.2       4 UNK         0.5031 
     21 O          25.3423   27.8990   -1.9952 O.2       4 UNK        -0.5229 
     22 CA         24.5928   25.6880   -2.4827 C.3       4 UNK         0.0329 
     23 CB         25.1176   24.9369   -3.7204 C.3       4 UNK        -0.2001 
     24 N          24.2001   24.7212   -1.4592 N.am      4 UNK        -0.4303 
     25 C          22.9323   24.3550   -1.2123 C.2       3 UNK         0.5044 
     26 O          21.9550   24.8960   -1.7336 O.2       3 UNK        -0.5152 
     27 CA         22.7068   23.1809   -0.2327 C.3       3 UNK         0.0319 
     28 CB         21.3821   22.4310   -0.4899 C.3       3 UNK        -0.2001 
     29 N          23.8338   22.2424   -0.1770 N.am      3 UNK        -0.4354 
     30 C          24.3582   21.5287   -1.1900 C.2       2 UNK         0.4964 
     31 O          23.8518   21.4567   -2.3106 O.2       2 UNK        -0.5047 
     32 CA         25.6963   20.8048   -0.9133 C.3       2 UNK         0.0288 
     33 CB         26.5730   20.6854   -2.1789 C.3       2 UNK        -0.2113 
     34 N          26.4642   21.4017    0.1903 N.am      2 UNK        -0.4145 
     35 C          26.9006   22.6685    0.2740 C.2       1 UNK         0.5006 
     36 O          26.7970   23.5036   -0.6316 O.2       1 UNK        -0.5103 
     37 C          27.9169   27.4509    0.2856 C.2       5 UNK         0.5055 
     38 O          27.5228   26.6430    1.1294 O.2       5 UNK        -0.5220 
     39 N          28.3811   28.6664    0.5796 N.am      6 UNK        -0.4450 
     40 CA         28.6484   29.1901    1.9104 C.3       6 UNK         0.0367 
     41 CB         27.3529   29.7032    2.5634 C.3       6 UNK        -0.1929 
     42 C          29.6776   30.3116    1.7402 C.2       6 UNK         0.5070 
     43 O          29.6392   31.0205    0.7309 O.2       6 UNK        -0.5237 
     44 N          30.5750   30.4507    2.7184 N.am      7 UNK        -0.4739 
     45 CA         31.6758   31.4138    2.7260 C.3       7 UNK         0.0276 
     46 CB         32.7613   31.0267    1.6957 C.3       7 UNK        -0.1927 
     47 C          32.2314   31.4916    4.1512 C.2       7 UNK         0.5013 
     48 O          33.3990   31.1706    4.3758 O.2       7 UNK        -0.5193 
     49 N          31.3758   31.8833    5.1061 N.am      8 UNK        -0.4253 
     50 CA         31.6688   31.9179    6.5469 C.3       8 UNK         0.0242 
     51 CB         30.4287   32.4134    7.3077 C.3       8 UNK        -0.2000 
     52 C          32.9069   32.7463    6.9395 C.2       8 UNK         0.4948 
     53 O          33.5797   32.3970    7.9086 O.2       8 UNK        -0.5275 
     54 N          33.2157   33.7920    6.1601 N.am      9 UNK        -0.4246 
     55 CA         34.4234   34.6101    6.3016 C.3       9 UNK         0.0261 
     56 CB         34.3006   35.8486    5.3988 C.3       9 UNK        -0.1959 
     57 C          35.7318   33.8523    5.9972 C.2       9 UNK         0.5033 
     58 O          36.7789   34.2492    6.5110 O.2       9 UNK        -0.5390 
     59 N          35.6583   32.7953    5.1762 N.am      10 UNK        -0.4215 
     60 CA         36.7831   31.9276    4.8280 C.3       10 UNK         0.0240 
     61 CB         36.7467   31.6216    3.3204 C.3       10 UNK        -0.1982 
     62 C          36.7441   30.6285    5.6447 C.2       10 UNK         0.4970 
     63 O          37.7747   30.2274    6.1871 O.2       10 UNK        -0.4916 
     64 N          35.5671   29.9932    5.7091 N.am      11 UNK        -0.4279 
     65 CA         35.3408   28.7189    6.4053 C.3       11 UNK         0.1003 
     66 C          35.3299   28.8165    7.9572 C.2       11 UNK         0.5709 
     67 N          35.0895   29.9741    8.5597 N.am      11 UNK        -0.7358 
     68 O          35.5580   27.8150    8.6317 O.2       11 UNK        -0.4999 
     69 C69        34.0681   28.0050    5.8821 C.3       12 UNK        -0.0954 
     70 S70        34.2344   27.4729    4.1454 S.3       12 UNK        -0.2268 
     71 C71        32.4872   27.3697    3.6592 C.3       12 UNK         0.0203 
     72 H72        25.2789   26.2574    2.8219 H         1 UNK         0.0888 
     73 H73        24.2452   25.3321    3.9132 H         1 UNK         0.0888 
     74 H74        23.7807   25.5441    2.2219 H         1 UNK         0.0888 
     75 H75        27.0180   25.1362    1.9867 H         1 UNK         0.3017 
     76 H76        27.3536   22.2743    2.3507 H         1 UNK         0.0873 
     77 H77        29.2393   23.8693    2.5835 H         1 UNK         0.0745 
     78 H78        29.0755   24.3579    0.9204 H         1 UNK         0.0745 
     79 H79        31.6399   22.5171    2.8893 H         1 UNK         0.0705 
     80 H80        32.4663   22.1554    1.3931 H         1 UNK         0.0705 
     81 H81        32.0763   24.6938    3.6736 H         1 UNK         0.1334 
     82 H82        32.4462   28.0188    0.9903 H         1 UNK         0.1417 
     83 H83        31.8019   24.0699   -0.5575 H         1 UNK         0.1562 
     84 H84        32.2135   25.8477   -2.0866 H         1 UNK         0.0748 
     85 H85        33.0086   27.2825   -1.4935 H         1 UNK         0.0748 
     86 H86        29.5554   25.6090   -0.9312 H         1 UNK         0.0940 
     87 H87        29.1930   25.9490   -2.5975 H         1 UNK         0.0940 
     88 H88        27.8542   27.9943   -1.7837 H         1 UNK         0.0703 
     89 H89        26.9262   25.2194   -1.4292 H         1 UNK         0.3081 
     90 H90        23.7255   26.2719   -2.7981 H         1 UNK         0.0719 
     91 H91        25.9540   24.2810   -3.4750 H         1 UNK         0.0809 
     92 H92        24.3358   24.3205   -4.1650 H         1 UNK         0.0809 
     93 H93        25.4580   25.6329   -4.4883 H         1 UNK         0.0809 
     94 H94        24.9571   24.2335   -0.9913 H         1 UNK         0.2990 
     95 H95        22.6394   23.6297    0.7590 H         1 UNK         0.0690 
     96 H96        21.2455   21.6132    0.2176 H         1 UNK         0.0788 
     97 H97        21.3409   22.0147   -1.4968 H         1 UNK         0.0788 
     98 H98        20.5261   23.0979   -0.3795 H         1 UNK         0.0788 
     99 H99        24.3171   22.2269    0.7159 H         1 UNK         0.2993 
    100 H100       25.4312   19.7953   -0.5953 H         1 UNK         0.0949 
    101 H101       26.0668   20.1090   -2.9542 H         1 UNK         0.0767 
    102 H102       26.8079   21.6625   -2.6026 H         1 UNK         0.0767 
    103 H103       27.5138   20.1788   -1.9633 H         1 UNK         0.0767 
    104 H104       26.5812   20.8085    1.0008 H         1 UNK         0.3013 
    105 H105       28.7248   29.2657   -0.1626 H         1 UNK         0.3121 
    106 H106       29.0825   28.3964    2.5229 H         1 UNK         0.0774 
    107 H107       26.6237   28.9018    2.6831 H         1 UNK         0.0815 
    108 H108       26.8891   30.4917    1.9694 H         1 UNK         0.0815 
    109 H109       27.5505   30.1122    3.5549 H         1 UNK         0.0815 
    110 H110       30.5119   29.8541    3.5324 H         1 UNK         0.2987 
    111 H111       31.2868   32.4015    2.4686 H         1 UNK         0.0949 
    112 H112       33.2102   30.0600    1.9247 H         1 UNK         0.0806 
    113 H113       32.3639   30.9810    0.6820 H         1 UNK         0.0806 
    114 H114       33.5672   31.7617    1.6890 H         1 UNK         0.0806 
    115 H115       30.4354   32.1317    4.8325 H         1 UNK         0.3010 
    116 H116       31.8678   30.8896    6.8563 H         1 UNK         0.0829 
    117 H117       29.5702   31.7639    7.1359 H         1 UNK         0.0813 
    118 H118       30.6103   32.4270    8.3836 H         1 UNK         0.0813 
    119 H119       30.1505   33.4257    7.0117 H         1 UNK         0.0813 
    120 H120       32.6011   34.0123    5.3901 H         1 UNK         0.3038 
    121 H121       34.4776   34.9472    7.3390 H         1 UNK         0.0769 
    122 H122       34.2238   35.5755    4.3455 H         1 UNK         0.0811 
    123 H123       35.1725   36.4959    5.5042 H         1 UNK         0.0811 
    124 H124       33.4251   36.4445    5.6576 H         1 UNK         0.0811 
    125 H125       34.7474   32.4979    4.8407 H         1 UNK         0.3204 
    126 H126       37.7284   32.4305    5.0432 H         1 UNK         0.0748 
    127 H127       36.8200   32.5354    2.7307 H         1 UNK         0.0771 
    128 H128       37.5821   30.9820    3.0326 H         1 UNK         0.0771 
    129 H129       35.8288   31.1092    3.0287 H         1 UNK         0.0771 
    130 H130       34.7656   30.3780    5.2140 H         1 UNK         0.2980 
    131 H131       36.1888   28.0735    6.1669 H         1 UNK         0.0545 
    132 H132       35.0976   30.0070    9.5662 H         1 UNK         0.3459 
    133 H133       34.8227   30.8021    8.0407 H         1 UNK         0.3459 
    134 H134       33.8507   27.1118    6.4710 H         1 UNK         0.0616 
    135 H135       33.2008   28.6605    5.9818 H         1 UNK         0.0616 
    136 H136       32.1255   28.3710    3.4358 H         1 UNK         0.0634 
    137 H137       31.8929   27.0046    4.4984 H         1 UNK         0.0634 
@<TRIPOS>BOND
     1    1    2 1    
     2    1   72 1    
     3    1   73 1    
     4    1   74 1    
     5    2    3 2    
     6    2    4 am   BACKBONE|DICT|INTERRES
     7    4    5 1    
     8    4   75 1    
     9    5    6 1    
    10    5   35 1    
    11    5   76 1    
    12    6    7 1    
    13    6   77 1    
    14    6   78 1    
    15    7    8 1    
    16    8    9 1    
    17    8   79 1    
    18    8   80 1    
    19    9   10 ar   
    20    9   14 ar   
    21   10   11 ar   
    22   10   81 1    
    23   11   12 ar   
    24   11   71 1    
    25   12   13 ar   
    26   12   82 1    
    27   13   14 ar   
    28   13   15 1    
    29   14   83 1    
    30   15   16 1    
    31   15   84 1    
    32   15   85 1    
    33   16   17 1    
    34   17   18 1    
    35   17   86 1    
    36   17   87 1    
    37   18   19 1    
    38   18   37 1    
    39   18   88 1    
    40   19   20 am   BACKBONE|DICT|INTERRES
    41   19   89 1    
    42   20   21 2    
    43   20   22 1    
    44   22   23 1    
    45   22   24 1    
    46   22   90 1    
    47   23   91 1    
    48   23   92 1    
    49   23   93 1    
    50   24   25 am   BACKBONE|DICT|INTERRES
    51   24   94 1    
    52   25   26 2    
    53   25   27 1    
    54   27   28 1    
    55   27   29 1    
    56   27   95 1    
    57   28   96 1    
    58   28   97 1    
    59   28   98 1    
    60   29   30 am   BACKBONE|DICT|INTERRES
    61   29   99 1    
    62   30   31 2    
    63   30   32 1    
    64   32   33 1    
    65   32   34 1    
    66   32  100 1    
    67   33  101 1    
    68   33  102 1    
    69   33  103 1    
    70   34   35 am   BACKBONE|DICT|INTERRES
    71   34  104 1    
    72   35   36 2    
    73   37   38 2    
    74   37   39 am   BACKBONE|DICT|INTERRES
    75   39   40 1    
    76   39  105 1    
    77   40   41 1    
    78   40   42 1    
    79   40  106 1    
    80   41  107 1    
    81   41  108 1    
    82   41  109 1    
    83   42   43 2    
    84   42   44 am   BACKBONE|DICT|INTERRES
    85   44   45 1    
    86   44  110 1    
    87   45   46 1    
    88   45   47 1    
    89   45  111 1    
    90   46  112 1    
    91   46  113 1    
    92   46  114 1    
    93   47   48 2    
    94   47   49 am   BACKBONE|DICT|INTERRES
    95   49   50 1    
    96   49  115 1    
    97   50   51 1    
    98   50   52 1    
    99   50  116 1    
   100   51  117 1    
   101   51  118 1    
   102   51  119 1    
   103   52   53 2    
   104   52   54 am   BACKBONE|DICT|INTERRES
   105   54   55 1    
   106   54  120 1    
   107   55   56 1    
   108   55   57 1    
   109   55  121 1    
   110   56  122 1    
   111   56  123 1    
   112   56  124 1    
   113   57   58 2    
   114   57   59 am   BACKBONE|DICT|INTERRES
   115   59   60 1    
   116   59  125 1    
   117   60   61 1    
   118   60   62 1    
   119   60  126 1    
   120   61  127 1    
   121   61  128 1    
   122   61  129 1    
   123   62   63 2    
   124   62   64 am   BACKBONE|DICT|INTERRES
   125   64   65 1    
   126   64  130 1    
   127   65   66 1    
   128   65   69 1    
   129   65  131 1    
   130   66   67 am   BACKBONE|DICT|INTERRES
   131   66   68 2    
   132   67  132 1    
   133   67  133 1    
   134   69   70 1    
   135   69  134 1    
   136   69  135 1    
   137   70   71 1    
   138   71  136 1    
   139   71  137 1    
@<TRIPOS>SUBSTRUCTURE
     1 UNK         1 GROUP             0       ****    0 ROOT    
