@<TRIPOS>MOLECULE
3R136
137   139    1
SMALL
USER_CHARGES


@<TRIPOS>ATOM
      1 CA         28.5975   20.4489   -1.8395 C.3       0 UNK        -0.1979 
      2 C          28.8992   21.9304   -1.6687 C.2       0 UNK         0.4864 
      3 O          27.9664   22.7322   -1.6139 O.2       0 UNK        -0.5359 
      4 N          30.1921   22.2832   -1.5894 N.am      1 UNK        -0.4318 
      5 CA         30.7583   23.6304   -1.4183 C.3       1 UNK         0.0824 
      6 C6         30.8983   24.0649    0.0729 C.3       12 UNK        -0.0944 
      7 S7         29.3462   24.2415    1.0337 S.3       12 UNK        -0.2672 
      8 C8         29.5664   23.0057    2.3524 C.3       12 UNK         0.0333 
      9 C9         30.3243   23.5721    3.5476 C.ar      12 UNK        -0.0807 
     10 C10        31.7163   23.7045    3.5075 C.ar      12 UNK        -0.0894 
     11 C11        32.4175   24.2085    4.6058 C.ar      12 UNK        -0.0804 
     12 C12        31.7185   24.5643    5.7618 C.ar      12 UNK        -0.0824 
     13 C13        30.3285   24.4291    5.8215 C.ar      12 UNK        -0.0762 
     14 C14        29.6353   23.9393    4.7092 C.ar      12 UNK        -0.0782 
     15 C15        29.5911   24.7869    7.1033 C.3       12 UNK         0.0230 
     16 S16        29.1533   26.5525    7.1633 S.3       12 UNK        -0.2608 
     17 C17        27.6222   26.6004    6.1718 C.3       12 UNK        -0.0989 
     18 CA         27.8208   27.1947    4.7544 C.3       5 UNK         0.0716 
     19 N          26.7235   26.7911    3.8663 N.am      5 UNK        -0.4135 
     20 C          26.6803   27.0021    2.5452 C.2       4 UNK         0.5031 
     21 O          27.5760   27.5507    1.8993 O.2       4 UNK        -0.5229 
     22 CA         25.3801   26.6069    1.8431 C.3       4 UNK         0.0329 
     23 CB         24.4090   27.8033    1.8007 C.3       4 UNK        -0.2001 
     24 N          25.6959   26.1538    0.4936 N.am      4 UNK        -0.4303 
     25 C          24.8874   25.4384   -0.2975 C.2       3 UNK         0.5044 
     26 O          23.7452   25.1093    0.0282 O.2       3 UNK        -0.5152 
     27 CA         25.4316   24.9645   -1.6601 C.3       3 UNK         0.0319 
     28 CB         24.4694   25.2993   -2.8200 C.3       3 UNK        -0.2001 
     29 N          26.8093   25.3821   -1.9568 N.am      3 UNK        -0.4354 
     30 C          27.2602   26.6100   -2.2640 C.2       2 UNK         0.4964 
     31 O          26.5329   27.5991   -2.3507 O.2       2 UNK        -0.5047 
     32 CA         28.7779   26.7716   -2.4840 C.3       2 UNK         0.0288 
     33 CB         29.2880   28.1372   -1.9927 C.3       2 UNK        -0.2113 
     34 N          29.5273   25.7250   -1.7906 N.am      2 UNK        -0.4145 
     35 C          30.1304   24.6796   -2.3649 C.2       1 UNK         0.5006 
     36 O          30.2015   24.5108   -3.5846 O.2       1 UNK        -0.5103 
     37 C          28.0000   28.7302    4.7950 C.2       5 UNK         0.5055 
     38 O          29.1295   29.2140    4.8529 O.2       5 UNK        -0.5220 
     39 N          26.8808   29.4687    4.7282 N.am      6 UNK        -0.4450 
     40 CA         26.8533   30.9322    4.6607 C.3       6 UNK         0.0367 
     41 CB         25.4192   31.4261    4.9108 C.3       6 UNK        -0.1929 
     42 C          27.3876   31.4875    3.3281 C.2       6 UNK         0.5070 
     43 O          27.9554   32.5797    3.3173 O.2       6 UNK        -0.5237 
     44 N          27.1994   30.7348    2.2343 N.am      7 UNK        -0.4739 
     45 CA         27.7352   31.0623    0.9120 C.3       7 UNK         0.0276 
     46 CB         26.9216   30.3403   -0.1736 C.3       7 UNK        -0.1927 
     47 C          29.2281   30.7158    0.8103 C.2       7 UNK         0.5013 
     48 O          29.9925   31.4892    0.2314 O.2       7 UNK        -0.5193 
     49 N          29.6298   29.5846    1.4073 N.am      8 UNK        -0.4253 
     50 CA         31.0102   29.1024    1.5000 C.3       8 UNK         0.0242 
     51 CB         30.9848   27.5910    1.7914 C.3       8 UNK        -0.2000 
     52 C          31.8357   29.8870    2.5402 C.2       8 UNK         0.4948 
     53 O          32.4211   29.2905    3.4442 O.2       8 UNK        -0.5275 
     54 N          31.8906   31.2174    2.3830 N.am      9 UNK        -0.4246 
     55 CA         32.5286   32.1769    3.2936 C.3       9 UNK         0.0261 
     56 CB         32.3190   33.5998    2.7527 C.3       9 UNK        -0.1959 
     57 C          34.0211   31.9177    3.5713 C.2       9 UNK         0.5033 
     58 O          34.5050   32.2814    4.6443 O.2       9 UNK        -0.5390 
     59 N          34.7109   31.2537    2.6325 N.am      10 UNK        -0.4215 
     60 CA         36.0874   30.7690    2.7713 C.3       10 UNK         0.0240 
     61 CB         36.5415   30.1553    1.4368 C.3       10 UNK        -0.1982 
     62 C          36.2861   29.7607    3.9213 C.2       10 UNK         0.4970 
     63 O          37.4006   29.6633    4.4367 O.2       10 UNK        -0.4916 
     64 N          35.2199   29.0501    4.3149 N.am      11 UNK        -0.4279 
     65 CA         35.1942   28.1673    5.4901 C.3       11 UNK         0.1003 
     66 C          35.0425   28.9250    6.8433 C.2       11 UNK         0.5709 
     67 N          34.8347   30.2377    6.8686 N.am      11 UNK        -0.7358 
     68 O          35.1336   28.3074    7.9018 O.2       11 UNK        -0.4999 
     69 C69        34.1246   27.0528    5.3452 C.3       12 UNK        -0.0954 
     70 S70        34.4220   25.9812    3.8972 S.3       12 UNK        -0.2268 
     71 C71        33.9313   24.3518    4.5422 C.3       12 UNK         0.0203 
     72 H72        28.0511   20.2830   -2.7675 H         1 UNK         0.0888 
     73 H73        29.5052   19.8463   -1.8670 H         1 UNK         0.0888 
     74 H74        27.9812   20.0961   -1.0130 H         1 UNK         0.0888 
     75 H75        30.8843   21.5528   -1.6775 H         1 UNK         0.3017 
     76 H76        31.7805   23.5363   -1.7890 H         1 UNK         0.0873 
     77 H77        31.5348   23.3316    0.5650 H         1 UNK         0.0745 
     78 H78        31.4522   25.0025    0.1425 H         1 UNK         0.0745 
     79 H79        28.5789   22.6630    2.6648 H         1 UNK         0.0705 
     80 H80        30.0771   22.1242    1.9621 H         1 UNK         0.0705 
     81 H81        32.2639   23.4164    2.6231 H         1 UNK         0.1334 
     82 H82        32.2557   24.9451    6.6194 H         1 UNK         0.1417 
     83 H83        28.5601   23.8329    4.7520 H         1 UNK         0.1562 
     84 H84        30.2254   24.5606    7.9617 H         1 UNK         0.0748 
     85 H85        28.7001   24.1689    7.2242 H         1 UNK         0.0748 
     86 H86        26.8665   27.1587    6.7283 H         1 UNK         0.0940 
     87 H87        27.2310   25.5849    6.0995 H         1 UNK         0.0940 
     88 H88        28.7347   26.7733    4.3295 H         1 UNK         0.0703 
     89 H89        25.9333   26.3440    4.3084 H         1 UNK         0.3081 
     90 H90        24.9209   25.7811    2.3907 H         1 UNK         0.0719 
     91 H91        24.8150   28.6312    1.2190 H         1 UNK         0.0809 
     92 H92        23.4532   27.5256    1.3564 H         1 UNK         0.0809 
     93 H93        24.1970   28.1777    2.8028 H         1 UNK         0.0809 
     94 H94        26.6305   26.3800    0.1793 H         1 UNK         0.2990 
     95 H95        25.4759   23.8770   -1.5879 H         1 UNK         0.0690 
     96 H96        24.8568   24.9413   -3.7737 H         1 UNK         0.0788 
     97 H97        24.2927   26.3714   -2.9079 H         1 UNK         0.0788 
     98 H98        23.4983   24.8265   -2.6687 H         1 UNK         0.0788 
     99 H99        27.4829   24.6219   -1.8894 H         1 UNK         0.2993 
    100 H100       28.9481   26.7117   -3.5609 H         1 UNK         0.0949 
    101 H101       28.8052   28.9577   -2.5248 H         1 UNK         0.0767 
    102 H102       29.0880   28.2686   -0.9307 H         1 UNK         0.0767 
    103 H103       30.3622   28.2406   -2.1465 H         1 UNK         0.0767 
    104 H104       29.4744   25.7256   -0.7790 H         1 UNK         0.3013 
    105 H105       25.9901   28.9949    4.7026 H         1 UNK         0.3121 
    106 H106       27.4923   31.3193    5.4576 H         1 UNK         0.0774 
    107 H107       25.3746   32.5160    4.8911 H         1 UNK         0.0815 
    108 H108       24.7256   31.0590    4.1531 H         1 UNK         0.0815 
    109 H109       25.0530   31.1072    5.8868 H         1 UNK         0.0815 
    110 H110       26.7583   29.8327    2.3359 H         1 UNK         0.2987 
    111 H111       27.6336   32.1376    0.7477 H         1 UNK         0.0949 
    112 H112       26.9628   29.2565   -0.0650 H         1 UNK         0.0806 
    113 H113       25.8737   30.6386   -0.1482 H         1 UNK         0.0806 
    114 H114       27.3002   30.5796   -1.1682 H         1 UNK         0.0806 
    115 H115       28.9229   28.9905    1.8303 H         1 UNK         0.3010 
    116 H116       31.4907   29.2460    0.5301 H         1 UNK         0.0829 
    117 H117       30.4091   27.0567    1.0375 H         1 UNK         0.0813 
    118 H118       31.9913   27.1705    1.7957 H         1 UNK         0.0813 
    119 H119       30.5394   27.3755    2.7634 H         1 UNK         0.0813 
    120 H120       31.3654   31.6048    1.6036 H         1 UNK         0.3038 
    121 H121       32.0097   32.0960    4.2509 H         1 UNK         0.0769 
    122 H122       32.7804   33.7311    1.7731 H         1 UNK         0.0811 
    123 H123       32.7565   34.3416    3.4225 H         1 UNK         0.0811 
    124 H124       31.2584   33.8357    2.6593 H         1 UNK         0.0811 
    125 H125       34.2218   30.9961    1.7879 H         1 UNK         0.3204 
    126 H126       36.7190   31.6335    2.9857 H         1 UNK         0.0748 
    127 H127       36.4908   30.8826    0.6262 H         1 UNK         0.0771 
    128 H128       37.5754   29.8122    1.4968 H         1 UNK         0.0771 
    129 H129       35.9292   29.2963    1.1589 H         1 UNK         0.0771 
    130 H130       34.3206   29.1907    3.8625 H         1 UNK         0.2980 
    131 H131       36.1635   27.6689    5.5493 H         1 UNK         0.0545 
    132 H132       34.7483   30.7004    7.7592 H         1 UNK         0.3459 
    133 H133       34.7662   30.7789    6.0146 H         1 UNK         0.3459 
    134 H134       33.1236   27.4796    5.2639 H         1 UNK         0.0616 
    135 H135       34.1170   26.4291    6.2401 H         1 UNK         0.0616 
    136 H136       34.3471   23.5817    3.8908 H         1 UNK         0.0634 
    137 H137       34.3768   24.1875    5.5245 H         1 UNK         0.0634 
@<TRIPOS>BOND
     1    1    2 1    
     2    1   72 1    
     3    1   73 1    
     4    1   74 1    
     5    2    3 2    
     6    2    4 am   BACKBONE|DICT|INTERRES
     7    4    5 1    
     8    4   75 1    
     9    5    6 1    
    10    5   35 1    
    11    5   76 1    
    12    6    7 1    
    13    6   77 1    
    14    6   78 1    
    15    7    8 1    
    16    8    9 1    
    17    8   79 1    
    18    8   80 1    
    19    9   10 ar   
    20    9   14 ar   
    21   10   11 ar   
    22   10   81 1    
    23   11   12 ar   
    24   11   71 1    
    25   12   13 ar   
    26   12   82 1    
    27   13   14 ar   
    28   13   15 1    
    29   14   83 1    
    30   15   16 1    
    31   15   84 1    
    32   15   85 1    
    33   16   17 1    
    34   17   18 1    
    35   17   86 1    
    36   17   87 1    
    37   18   19 1    
    38   18   37 1    
    39   18   88 1    
    40   19   20 am   BACKBONE|DICT|INTERRES
    41   19   89 1    
    42   20   21 2    
    43   20   22 1    
    44   22   23 1    
    45   22   24 1    
    46   22   90 1    
    47   23   91 1    
    48   23   92 1    
    49   23   93 1    
    50   24   25 am   BACKBONE|DICT|INTERRES
    51   24   94 1    
    52   25   26 2    
    53   25   27 1    
    54   27   28 1    
    55   27   29 1    
    56   27   95 1    
    57   28   96 1    
    58   28   97 1    
    59   28   98 1    
    60   29   30 am   BACKBONE|DICT|INTERRES
    61   29   99 1    
    62   30   31 2    
    63   30   32 1    
    64   32   33 1    
    65   32   34 1    
    66   32  100 1    
    67   33  101 1    
    68   33  102 1    
    69   33  103 1    
    70   34   35 am   BACKBONE|DICT|INTERRES
    71   34  104 1    
    72   35   36 2    
    73   37   38 2    
    74   37   39 am   BACKBONE|DICT|INTERRES
    75   39   40 1    
    76   39  105 1    
    77   40   41 1    
    78   40   42 1    
    79   40  106 1    
    80   41  107 1    
    81   41  108 1    
    82   41  109 1    
    83   42   43 2    
    84   42   44 am   BACKBONE|DICT|INTERRES
    85   44   45 1    
    86   44  110 1    
    87   45   46 1    
    88   45   47 1    
    89   45  111 1    
    90   46  112 1    
    91   46  113 1    
    92   46  114 1    
    93   47   48 2    
    94   47   49 am   BACKBONE|DICT|INTERRES
    95   49   50 1    
    96   49  115 1    
    97   50   51 1    
    98   50   52 1    
    99   50  116 1    
   100   51  117 1    
   101   51  118 1    
   102   51  119 1    
   103   52   53 2    
   104   52   54 am   BACKBONE|DICT|INTERRES
   105   54   55 1    
   106   54  120 1    
   107   55   56 1    
   108   55   57 1    
   109   55  121 1    
   110   56  122 1    
   111   56  123 1    
   112   56  124 1    
   113   57   58 2    
   114   57   59 am   BACKBONE|DICT|INTERRES
   115   59   60 1    
   116   59  125 1    
   117   60   61 1    
   118   60   62 1    
   119   60  126 1    
   120   61  127 1    
   121   61  128 1    
   122   61  129 1    
   123   62   63 2    
   124   62   64 am   BACKBONE|DICT|INTERRES
   125   64   65 1    
   126   64  130 1    
   127   65   66 1    
   128   65   69 1    
   129   65  131 1    
   130   66   67 am   BACKBONE|DICT|INTERRES
   131   66   68 2    
   132   67  132 1    
   133   67  133 1    
   134   69   70 1    
   135   69  134 1    
   136   69  135 1    
   137   70   71 1    
   138   71  136 1    
   139   71  137 1    
@<TRIPOS>SUBSTRUCTURE
     1 UNK         1 GROUP             0       ****    0 ROOT    
