@<TRIPOS>MOLECULE
3R136
137   139    1
SMALL
USER_CHARGES


@<TRIPOS>ATOM
      1 CA         26.1037   23.1254    2.2423 C.3       0 UNK        -0.1979 
      2 C          26.8418   22.0390    1.4818 C.2       0 UNK         0.4864 
      3 O          26.2066   21.1529    0.9098 O.2       0 UNK        -0.5359 
      4 N          28.1796   22.1084    1.4664 N.am      1 UNK        -0.4318 
      5 CA         29.0443   21.1931    0.7085 C.3       1 UNK         0.0824 
      6 C6         30.4718   21.1091    1.2998 C.3       12 UNK        -0.0944 
      7 S7         30.4476   20.5773    3.0470 S.3       12 UNK        -0.2672 
      8 C8         31.5107   21.8164    3.8521 C.3       12 UNK         0.0333 
      9 C9         30.9128   23.2177    3.8355 C.ar      12 UNK        -0.0807 
     10 C10        31.4532   24.1986    2.9977 C.ar      12 UNK        -0.0894 
     11 C11        30.9598   25.5054    3.0198 C.ar      12 UNK        -0.0804 
     12 C12        29.9229   25.8256    3.9020 C.ar      12 UNK        -0.0824 
     13 C13        29.3489   24.8526    4.7221 C.ar      12 UNK        -0.0762 
     14 C14        29.8503   23.5464    4.6853 C.ar      12 UNK        -0.0782 
     15 C15        28.2123   25.2250    5.6670 C.3       12 UNK         0.0230 
     16 S16        26.6294   25.4749    4.7922 S.3       12 UNK        -0.2608 
     17 C17        26.7157   27.2197    4.2579 C.3       12 UNK        -0.0989 
     18 CA         26.9512   27.3908    2.7336 C.3       5 UNK         0.0716 
     19 N          25.8583   26.8537    1.9193 N.am      5 UNK        -0.4135 
     20 C          25.9798   26.5832    0.6138 C.2       4 UNK         0.5031 
     21 O          27.0523   26.6368    0.0017 O.2       4 UNK        -0.5229 
     22 CA         24.6994   26.2029   -0.1426 C.3       4 UNK         0.0329 
     23 CB         23.7582   27.4158   -0.2849 C.3       4 UNK        -0.2001 
     24 N          25.1049   25.7185   -1.4573 N.am      4 UNK        -0.4303 
     25 C          24.3703   25.0435   -2.3475 C.2       3 UNK         0.5044 
     26 O          23.1840   24.7549   -2.1863 O.2       3 UNK        -0.5152 
     27 CA         25.0912   24.6093   -3.6397 C.3       3 UNK         0.0319 
     28 CB         24.9041   25.6656   -4.7408 C.3       3 UNK        -0.2001 
     29 N          26.5258   24.3674   -3.4372 N.am      3 UNK        -0.4354 
     30 C          27.0219   23.3280   -2.7510 C.2       2 UNK         0.4964 
     31 O          26.3171   22.4128   -2.3219 O.2       2 UNK        -0.5047 
     32 CA         28.5408   23.3070   -2.4825 C.3       2 UNK         0.0288 
     33 CB         29.2164   24.6874   -2.6261 C.3       2 UNK        -0.2113 
     34 N          28.7728   22.8121   -1.1258 N.am      2 UNK        -0.4145 
     35 C          29.0829   21.5502   -0.7943 C.2       1 UNK         0.5006 
     36 O          29.3775   20.6779   -1.6141 O.2       1 UNK        -0.5103 
     37 C          27.1595   28.8782    2.3840 C.2       5 UNK         0.5055 
     38 O          26.2155   29.6616    2.5068 O.2       5 UNK        -0.5220 
     39 N          28.3833   29.2422    1.9786 N.am      6 UNK        -0.4450 
     40 CA         28.7737   30.6166    1.6364 C.3       6 UNK         0.0367 
     41 CB         29.7986   30.5721    0.4890 C.3       6 UNK        -0.1929 
     42 C          29.3140   31.4172    2.8409 C.2       6 UNK         0.5070 
     43 O          29.6816   32.5787    2.6624 O.2       6 UNK        -0.5237 
     44 N          29.3383   30.7887    4.0275 N.am      7 UNK        -0.4739 
     45 CA         29.8629   31.2526    5.3202 C.3       7 UNK         0.0276 
     46 CB         29.2886   32.6277    5.7207 C.3       7 UNK        -0.1927 
     47 C          31.3996   31.2420    5.3810 C.2       7 UNK         0.5013 
     48 O          32.0733   31.2519    4.3487 O.2       7 UNK        -0.5193 
     49 N          31.9335   31.2268    6.6113 N.am      8 UNK        -0.4253 
     50 CA         33.3602   31.0766    6.9347 C.3       8 UNK         0.0242 
     51 CB         33.5383   31.0991    8.4612 C.3       8 UNK        -0.2000 
     52 C          34.3025   32.0982    6.2728 C.2       8 UNK         0.4948 
     53 O          35.4654   31.7707    6.0377 O.2       8 UNK        -0.5275 
     54 N          33.7838   33.2891    5.9415 N.am      9 UNK        -0.4246 
     55 CA         34.4810   34.3220    5.1700 C.3       9 UNK         0.0261 
     56 CB         33.6107   35.5884    5.1208 C.3       9 UNK        -0.1959 
     57 C          34.8666   33.8788    3.7440 C.2       9 UNK         0.5033 
     58 O          35.8533   34.3884    3.2102 O.2       9 UNK        -0.5390 
     59 N          34.0998   32.9459    3.1632 N.am      10 UNK        -0.4215 
     60 CA         34.3713   32.3245    1.8681 C.3       10 UNK         0.0240 
     61 CB         33.0923   32.3576    1.0161 C.3       10 UNK        -0.1982 
     62 C          34.8619   30.8796    2.0426 C.2       10 UNK         0.4970 
     63 O          35.8077   30.4810    1.3619 O.2       10 UNK        -0.4916 
     64 N          34.2065   30.1196    2.9293 N.am      11 UNK        -0.4279 
     65 CA         34.4606   28.6890    3.1597 C.3       11 UNK         0.1003 
     66 C          35.7611   28.3721    3.9502 C.2       11 UNK         0.5709 
     67 N          36.3560   29.3116    4.6751 N.am      11 UNK        -0.7358 
     68 O          36.2487   27.2458    3.8942 O.2       11 UNK        -0.4999 
     69 C69        33.2343   27.9867    3.8000 C.3       12 UNK        -0.0954 
     70 S70        31.7233   28.1970    2.8006 S.3       12 UNK        -0.2268 
     71 C71        31.5274   26.5457    2.0583 C.3       12 UNK         0.0203 
     72 H72        25.1689   23.3748    1.7414 H         1 UNK         0.0888 
     73 H73        25.8737   22.7910    3.2535 H         1 UNK         0.0888 
     74 H74        26.7044   24.0316    2.3035 H         1 UNK         0.0888 
     75 H75        28.6552   22.8162    2.0090 H         1 UNK         0.3017 
     76 H76        28.6102   20.1925    0.7724 H         1 UNK         0.0873 
     77 H77        30.9853   22.0662    1.2021 H         1 UNK         0.0745 
     78 H78        31.0721   20.3864    0.7436 H         1 UNK         0.0745 
     79 H79        32.4923   21.8069    3.3754 H         1 UNK         0.0705 
     80 H80        31.6764   21.5130    4.8869 H         1 UNK         0.0705 
     81 H81        32.2659   23.9450    2.3305 H         1 UNK         0.1334 
     82 H82        29.5556   26.8385    3.9506 H         1 UNK         0.1417 
     83 H83        29.4282   22.7866    5.3294 H         1 UNK         0.1562 
     84 H84        28.4756   26.1173    6.2366 H         1 UNK         0.0748 
     85 H85        28.0693   24.4343    6.4051 H         1 UNK         0.0748 
     86 H86        27.4947   27.7266    4.8299 H         1 UNK         0.0940 
     87 H87        25.7815   27.7031    4.5512 H         1 UNK         0.0940 
     88 H88        27.8537   26.8424    2.4623 H         1 UNK         0.0703 
     89 H89        24.9496   26.8126    2.3569 H         1 UNK         0.3081 
     90 H90        24.1974   25.3972    0.3964 H         1 UNK         0.0719 
     91 H91        23.4547   27.7997    0.6896 H         1 UNK         0.0809 
     92 H92        24.2383   28.2345   -0.8227 H         1 UNK         0.0809 
     93 H93        22.8461   27.1546   -0.8216 H         1 UNK         0.0809 
     94 H94        26.0845   25.8901   -1.6518 H         1 UNK         0.2990 
     95 H95        24.6300   23.6791   -3.9789 H         1 UNK         0.0690 
     96 H96        25.3545   26.6207   -4.4672 H         1 UNK         0.0788 
     97 H97        23.8451   25.8474   -4.9297 H         1 UNK         0.0788 
     98 H98        25.3480   25.3409   -5.6821 H         1 UNK         0.0788 
     99 H99        27.1630   25.0743   -3.7757 H         1 UNK         0.2993 
    100 H100       28.9879   22.6285   -3.2122 H         1 UNK         0.0949 
    101 H101       28.7595   25.4362   -1.9769 H         1 UNK         0.0767 
    102 H102       30.2739   24.6315   -2.3664 H         1 UNK         0.0767 
    103 H103       29.1663   25.0538   -3.6521 H         1 UNK         0.0767 
    104 H104       28.5107   23.4367   -0.3777 H         1 UNK         0.3013 
    105 H105       29.1052   28.5413    1.8864 H         1 UNK         0.3121 
    106 H106       27.8980   31.1572    1.2707 H         1 UNK         0.0774 
    107 H107       29.3994   30.0464   -0.3785 H         1 UNK         0.0815 
    108 H108       30.0620   31.5784    0.1608 H         1 UNK         0.0815 
    109 H109       30.7221   30.0760    0.7857 H         1 UNK         0.0815 
    110 H110       29.0361   29.8270    4.0187 H         1 UNK         0.2987 
    111 H111       29.5125   30.5211    6.0504 H         1 UNK         0.0949 
    112 H112       28.2029   32.6473    5.6266 H         1 UNK         0.0806 
    113 H113       29.5252   32.8654    6.7584 H         1 UNK         0.0806 
    114 H114       29.6928   33.4348    5.1090 H         1 UNK         0.0806 
    115 H115       31.3048   31.2421    7.4018 H         1 UNK         0.3010 
    116 H116       33.6649   30.0922    6.5737 H         1 UNK         0.0829 
    117 H117       32.9768   30.2965    8.9399 H         1 UNK         0.0813 
    118 H118       34.5860   30.9638    8.7347 H         1 UNK         0.0813 
    119 H119       33.2089   32.0454    8.8923 H         1 UNK         0.0813 
    120 H120       32.8187   33.4685    6.1769 H         1 UNK         0.3038 
    121 H121       35.4064   34.5606    5.6985 H         1 UNK         0.0769 
    122 H122       34.1148   36.3867    4.5740 H         1 UNK         0.0811 
    123 H123       33.4014   35.9668    6.1216 H         1 UNK         0.0811 
    124 H124       32.6576   35.4044    4.6230 H         1 UNK         0.0811 
    125 H125       33.3184   32.5595    3.6869 H         1 UNK         0.3204 
    126 H126       35.1471   32.8761    1.3329 H         1 UNK         0.0748 
    127 H127       33.2443   31.8634    0.0556 H         1 UNK         0.0771 
    128 H128       32.2649   31.8556    1.5183 H         1 UNK         0.0771 
    129 H129       32.7814   33.3820    0.8105 H         1 UNK         0.0771 
    130 H130       33.4112   30.5094    3.4309 H         1 UNK         0.2980 
    131 H131       34.6033   28.2344    2.1773 H         1 UNK         0.0545 
    132 H132       37.2021   29.0794    5.1695 H         1 UNK         0.3459 
    133 H133       35.9523   30.2334    4.7897 H         1 UNK         0.3459 
    134 H134       33.4239   26.9207    3.9389 H         1 UNK         0.0616 
    135 H135       33.0396   28.3931    4.7936 H         1 UNK         0.0616 
    136 H136       32.4901   26.2244    1.6574 H         1 UNK         0.0634 
    137 H137       30.8509   26.6282    1.2067 H         1 UNK         0.0634 
@<TRIPOS>BOND
     1    1    2 1    
     2    1   72 1    
     3    1   73 1    
     4    1   74 1    
     5    2    3 2    
     6    2    4 am   BACKBONE|DICT|INTERRES
     7    4    5 1    
     8    4   75 1    
     9    5    6 1    
    10    5   35 1    
    11    5   76 1    
    12    6    7 1    
    13    6   77 1    
    14    6   78 1    
    15    7    8 1    
    16    8    9 1    
    17    8   79 1    
    18    8   80 1    
    19    9   10 ar   
    20    9   14 ar   
    21   10   11 ar   
    22   10   81 1    
    23   11   12 ar   
    24   11   71 1    
    25   12   13 ar   
    26   12   82 1    
    27   13   14 ar   
    28   13   15 1    
    29   14   83 1    
    30   15   16 1    
    31   15   84 1    
    32   15   85 1    
    33   16   17 1    
    34   17   18 1    
    35   17   86 1    
    36   17   87 1    
    37   18   19 1    
    38   18   37 1    
    39   18   88 1    
    40   19   20 am   BACKBONE|DICT|INTERRES
    41   19   89 1    
    42   20   21 2    
    43   20   22 1    
    44   22   23 1    
    45   22   24 1    
    46   22   90 1    
    47   23   91 1    
    48   23   92 1    
    49   23   93 1    
    50   24   25 am   BACKBONE|DICT|INTERRES
    51   24   94 1    
    52   25   26 2    
    53   25   27 1    
    54   27   28 1    
    55   27   29 1    
    56   27   95 1    
    57   28   96 1    
    58   28   97 1    
    59   28   98 1    
    60   29   30 am   BACKBONE|DICT|INTERRES
    61   29   99 1    
    62   30   31 2    
    63   30   32 1    
    64   32   33 1    
    65   32   34 1    
    66   32  100 1    
    67   33  101 1    
    68   33  102 1    
    69   33  103 1    
    70   34   35 am   BACKBONE|DICT|INTERRES
    71   34  104 1    
    72   35   36 2    
    73   37   38 2    
    74   37   39 am   BACKBONE|DICT|INTERRES
    75   39   40 1    
    76   39  105 1    
    77   40   41 1    
    78   40   42 1    
    79   40  106 1    
    80   41  107 1    
    81   41  108 1    
    82   41  109 1    
    83   42   43 2    
    84   42   44 am   BACKBONE|DICT|INTERRES
    85   44   45 1    
    86   44  110 1    
    87   45   46 1    
    88   45   47 1    
    89   45  111 1    
    90   46  112 1    
    91   46  113 1    
    92   46  114 1    
    93   47   48 2    
    94   47   49 am   BACKBONE|DICT|INTERRES
    95   49   50 1    
    96   49  115 1    
    97   50   51 1    
    98   50   52 1    
    99   50  116 1    
   100   51  117 1    
   101   51  118 1    
   102   51  119 1    
   103   52   53 2    
   104   52   54 am   BACKBONE|DICT|INTERRES
   105   54   55 1    
   106   54  120 1    
   107   55   56 1    
   108   55   57 1    
   109   55  121 1    
   110   56  122 1    
   111   56  123 1    
   112   56  124 1    
   113   57   58 2    
   114   57   59 am   BACKBONE|DICT|INTERRES
   115   59   60 1    
   116   59  125 1    
   117   60   61 1    
   118   60   62 1    
   119   60  126 1    
   120   61  127 1    
   121   61  128 1    
   122   61  129 1    
   123   62   63 2    
   124   62   64 am   BACKBONE|DICT|INTERRES
   125   64   65 1    
   126   64  130 1    
   127   65   66 1    
   128   65   69 1    
   129   65  131 1    
   130   66   67 am   BACKBONE|DICT|INTERRES
   131   66   68 2    
   132   67  132 1    
   133   67  133 1    
   134   69   70 1    
   135   69  134 1    
   136   69  135 1    
   137   70   71 1    
   138   71  136 1    
   139   71  137 1    
@<TRIPOS>SUBSTRUCTURE
     1 UNK         1 GROUP             0       ****    0 ROOT    
