@<TRIPOS>MOLECULE
3R136
137   139    1
SMALL
USER_CHARGES


@<TRIPOS>ATOM
      1 CA         28.3259   31.2781   -3.3121 C.3       0 UNK        -0.1979 
      2 C          28.1417   30.2957   -2.1646 C.2       0 UNK         0.4864 
      3 O          27.1459   30.3834   -1.4465 O.2       0 UNK        -0.5359 
      4 N          29.1005   29.3768   -1.9913 N.am      1 UNK        -0.4318 
      5 CA         29.0906   28.3226   -0.9762 C.3       1 UNK         0.0824 
      6 C6         30.4919   28.1761   -0.3215 C.3       12 UNK        -0.0944 
      7 S7         30.4220   27.3485    1.2987 S.3       12 UNK        -0.2672 
      8 C8         31.4909   25.9013    1.0316 C.3       12 UNK         0.0333 
      9 C9         31.5366   25.0542    2.2893 C.ar      12 UNK        -0.0807 
     10 C10        32.3439   25.4352    3.3636 C.ar      12 UNK        -0.0894 
     11 C11        32.3281   24.7036    4.5545 C.ar      12 UNK        -0.0804 
     12 C12        31.4882   23.5903    4.6684 C.ar      12 UNK        -0.0824 
     13 C13        30.6768   23.1997    3.5966 C.ar      12 UNK        -0.0762 
     14 C14        30.7321   23.9181    2.3988 C.ar      12 UNK        -0.0782 
     15 C15        29.7184   22.0216    3.7420 C.3       12 UNK         0.0230 
     16 S16        27.9872   22.4511    3.3340 S.3       12 UNK        -0.2608 
     17 C17        27.6743   23.8738    4.4335 C.3       12 UNK        -0.0989 
     18 CA         27.6770   25.2135    3.6551 C.3       5 UNK         0.0716 
     19 N          26.5481   25.3288    2.7288 N.am      5 UNK        -0.4135 
     20 C          26.3399   26.3590    1.8985 C.2       4 UNK         0.5031 
     21 O          27.0788   27.3411    1.8249 O.2       4 UNK        -0.5229 
     22 CA         25.1302   26.2403    0.9606 C.3       4 UNK         0.0329 
     23 CB         24.7109   27.5960    0.3612 C.3       4 UNK        -0.2001 
     24 N          25.4571   25.3122   -0.1204 N.am      4 UNK        -0.4303 
     25 C          25.3088   23.9815   -0.0463 C.2       3 UNK         0.5044 
     26 O          24.8077   23.4098    0.9233 O.2       3 UNK        -0.5152 
     27 CA         25.7996   23.1369   -1.2374 C.3       3 UNK         0.0319 
     28 CB         24.6293   22.8011   -2.1759 C.3       3 UNK        -0.2001 
     29 N          26.8668   23.7761   -2.0102 N.am      3 UNK        -0.4354 
     30 C          28.1182   23.9677   -1.5713 C.2       2 UNK         0.4964 
     31 O          28.5292   23.5760   -0.4795 O.2       2 UNK        -0.5047 
     32 CA         29.0788   24.7461   -2.4899 C.3       2 UNK         0.0288 
     33 CB         28.5984   24.8744   -3.9548 C.3       2 UNK        -0.2113 
     34 N          29.3924   26.0645   -1.9271 N.am      2 UNK        -0.4145 
     35 C          28.5215   27.0372   -1.6134 C.2       1 UNK         0.5006 
     36 O          27.3098   26.9559   -1.8285 O.2       1 UNK        -0.5103 
     37 C          27.7607   26.4084    4.6222 C.2       5 UNK         0.5055 
     38 O          26.7501   26.7859    5.2198 O.2       5 UNK        -0.5220 
     39 N          28.9755   26.9581    4.7456 N.am      6 UNK        -0.4450 
     40 CA         29.3640   28.1069    5.5684 C.3       6 UNK         0.0367 
     41 CB         29.0427   27.8717    7.0607 C.3       6 UNK        -0.1929 
     42 C          28.8426   29.4700    5.0759 C.2       6 UNK         0.5070 
     43 O          29.0077   30.4576    5.7942 O.2       6 UNK        -0.5237 
     44 N          28.2545   29.5393    3.8720 N.am      7 UNK        -0.4739 
     45 CA         27.7700   30.7962    3.2915 C.3       7 UNK         0.0276 
     46 CB         26.7699   30.4991    2.1648 C.3       7 UNK        -0.1927 
     47 C          28.8996   31.7081    2.7812 C.2       7 UNK         0.5013 
     48 O          28.7109   32.9253    2.7514 O.2       7 UNK        -0.5193 
     49 N          30.0387   31.1211    2.3906 N.am      8 UNK        -0.4253 
     50 CA         31.2109   31.8061    1.8478 C.3       8 UNK         0.0242 
     51 CB         30.9002   32.3725    0.4387 C.3       8 UNK        -0.2000 
     52 C          32.4034   30.8332    1.8532 C.2       8 UNK         0.4948 
     53 O          32.4187   29.8885    2.6485 O.2       8 UNK        -0.5275 
     54 N          33.3655   31.0770    0.9505 N.am      9 UNK        -0.4246 
     55 CA         34.5105   30.2505    0.5387 C.3       9 UNK         0.0261 
     56 CB         34.0310   28.9383   -0.1091 C.3       9 UNK        -0.1959 
     57 C          35.5728   29.9606    1.6123 C.2       9 UNK         0.5033 
     58 O          36.7626   30.1126    1.3298 O.2       9 UNK        -0.5390 
     59 N          35.1419   29.5254    2.7971 N.am      10 UNK        -0.4215 
     60 CA         35.9971   29.0951    3.8966 C.3       10 UNK         0.0240 
     61 CB         36.3386   27.5965    3.7443 C.3       10 UNK        -0.1982 
     62 C          35.3226   29.4478    5.2249 C.2       10 UNK         0.4970 
     63 O          35.5172   30.5579    5.7208 O.2       10 UNK        -0.4916 
     64 N          34.5582   28.5003    5.7798 N.am      11 UNK        -0.4279 
     65 CA         33.8981   28.6065    7.0889 C.3       11 UNK         0.1003 
     66 C          32.6925   29.5931    7.1607 C.2       11 UNK         0.5709 
     67 N          32.2121   30.1470    6.0531 N.am      11 UNK        -0.7358 
     68 O          32.1932   29.8682    8.2490 O.2       11 UNK        -0.4999 
     69 C69        33.5750   27.2001    7.6677 C.3       12 UNK        -0.0954 
     70 S70        32.2611   26.3091    6.7682 S.3       12 UNK        -0.2268 
     71 C71        33.1882   25.1468    5.7274 C.3       12 UNK         0.0203 
     72 H72        29.2485   31.0965   -3.8631 H         1 UNK         0.0888 
     73 H73        27.4929   31.1992   -4.0102 H         1 UNK         0.0888 
     74 H74        28.3551   32.2983   -2.9300 H         1 UNK         0.0888 
     75 H75        29.8713   29.3468   -2.6434 H         1 UNK         0.3017 
     76 H76        28.3915   28.6021   -0.1859 H         1 UNK         0.0873 
     77 H77        30.8978   29.1683   -0.1253 H         1 UNK         0.0745 
     78 H78        31.2195   27.7003   -0.9799 H         1 UNK         0.0745 
     79 H79        31.1141   25.3132    0.1943 H         1 UNK         0.0705 
     80 H80        32.4979   26.2216    0.7639 H         1 UNK         0.0705 
     81 H81        32.9597   26.3203    3.2798 H         1 UNK         0.1334 
     82 H82        31.4543   23.0416    5.5999 H         1 UNK         0.1417 
     83 H83        30.0972   23.6264    1.5730 H         1 UNK         0.1562 
     84 H84        29.7478   21.6214    4.7566 H         1 UNK         0.0748 
     85 H85        30.0460   21.2160    3.0837 H         1 UNK         0.0748 
     86 H86        28.4280   23.8772    5.2240 H         1 UNK         0.0940 
     87 H87        26.7173   23.7259    4.9374 H         1 UNK         0.0940 
     88 H88        28.5662   25.2494    3.0272 H         1 UNK         0.0703 
     89 H89        25.9205   24.5374    2.6821 H         1 UNK         0.3081 
     90 H90        24.2851   25.8595    1.5383 H         1 UNK         0.0719 
     91 H91        25.5147   28.0579   -0.2137 H         1 UNK         0.0809 
     92 H92        23.8486   27.4893   -0.2967 H         1 UNK         0.0809 
     93 H93        24.4344   28.2977    1.1487 H         1 UNK         0.0809 
     94 H94        25.9525   25.7113   -0.9118 H         1 UNK         0.2990 
     95 H95        26.1912   22.2011   -0.8325 H         1 UNK         0.0690 
     96 H96        24.9433   22.1357   -2.9804 H         1 UNK         0.0788 
     97 H97        24.2027   23.6980   -2.6268 H         1 UNK         0.0788 
     98 H98        23.8281   22.2960   -1.6343 H         1 UNK         0.0788 
     99 H99        26.6154   24.1533   -2.9127 H         1 UNK         0.2993 
    100 H100       30.0111   24.1791   -2.4989 H         1 UNK         0.0949 
    101 H101       27.6926   25.4742   -4.0489 H         1 UNK         0.0767 
    102 H102       29.3637   25.3441   -4.5729 H         1 UNK         0.0767 
    103 H103       28.3966   23.8948   -4.3904 H         1 UNK         0.0767 
    104 H104       30.3640   26.2166   -1.7017 H         1 UNK         0.3013 
    105 H105       29.7238   26.5711    4.1845 H         1 UNK         0.3121 
    106 H106       30.4467   28.1628    5.4686 H         1 UNK         0.0774 
    107 H107       27.9747   27.9521    7.2637 H         1 UNK         0.0815 
    108 H108       29.5465   28.6098    7.6860 H         1 UNK         0.0815 
    109 H109       29.3741   26.8885    7.3932 H         1 UNK         0.0815 
    110 H110       28.1239   28.6959    3.3237 H         1 UNK         0.2987 
    111 H111       27.2365   31.3471    4.0695 H         1 UNK         0.0949 
    112 H112       27.2421   29.9714    1.3367 H         1 UNK         0.0806 
    113 H113       25.9388   29.8904    2.5206 H         1 UNK         0.0806 
    114 H114       26.3494   31.4209    1.7609 H         1 UNK         0.0806 
    115 H115       30.1486   30.1210    2.5087 H         1 UNK         0.3010 
    116 H116       31.4655   32.6302    2.5172 H         1 UNK         0.0829 
    117 H117       31.7189   32.9833    0.0576 H         1 UNK         0.0813 
    118 H118       30.7121   31.5777   -0.2838 H         1 UNK         0.0813 
    119 H119       30.0222   33.0178    0.4455 H         1 UNK         0.0813 
    120 H120       33.2561   31.9202    0.4043 H         1 UNK         0.3038 
    121 H121       35.0154   30.8258   -0.2393 H         1 UNK         0.0769 
    122 H122       33.4688   28.3273    0.5961 H         1 UNK         0.0811 
    123 H123       34.8743   28.3405   -0.4578 H         1 UNK         0.0811 
    124 H124       33.3941   29.1326   -0.9716 H         1 UNK         0.0811 
    125 H125       34.1316   29.4971    2.9405 H         1 UNK         0.3204 
    126 H126       36.9328   29.6582    3.8720 H         1 UNK         0.0748 
    127 H127       36.8845   27.2243    4.6124 H         1 UNK         0.0771 
    128 H128       35.4489   26.9796    3.6164 H         1 UNK         0.0771 
    129 H129       36.9744   27.4316    2.8740 H         1 UNK         0.0771 
    130 H130       34.4277   27.6299    5.2901 H         1 UNK         0.2980 
    131 H131       34.6408   29.0404    7.7613 H         1 UNK         0.0545 
    132 H132       32.6056   29.9328    5.1504 H         1 UNK         0.3459 
    133 H133       31.4148   30.7609    6.1240 H         1 UNK         0.3459 
    134 H134       33.2590   27.2916    8.7083 H         1 UNK         0.0616 
    135 H135       34.4765   26.5860    7.6918 H         1 UNK         0.0616 
    136 H136       34.1034   25.6139    5.3630 H         1 UNK         0.0634 
    137 H137       33.4945   24.2881    6.3267 H         1 UNK         0.0634 
@<TRIPOS>BOND
     1    1    2 1    
     2    1   72 1    
     3    1   73 1    
     4    1   74 1    
     5    2    3 2    
     6    2    4 am   BACKBONE|DICT|INTERRES
     7    4    5 1    
     8    4   75 1    
     9    5    6 1    
    10    5   35 1    
    11    5   76 1    
    12    6    7 1    
    13    6   77 1    
    14    6   78 1    
    15    7    8 1    
    16    8    9 1    
    17    8   79 1    
    18    8   80 1    
    19    9   10 ar   
    20    9   14 ar   
    21   10   11 ar   
    22   10   81 1    
    23   11   12 ar   
    24   11   71 1    
    25   12   13 ar   
    26   12   82 1    
    27   13   14 ar   
    28   13   15 1    
    29   14   83 1    
    30   15   16 1    
    31   15   84 1    
    32   15   85 1    
    33   16   17 1    
    34   17   18 1    
    35   17   86 1    
    36   17   87 1    
    37   18   19 1    
    38   18   37 1    
    39   18   88 1    
    40   19   20 am   BACKBONE|DICT|INTERRES
    41   19   89 1    
    42   20   21 2    
    43   20   22 1    
    44   22   23 1    
    45   22   24 1    
    46   22   90 1    
    47   23   91 1    
    48   23   92 1    
    49   23   93 1    
    50   24   25 am   BACKBONE|DICT|INTERRES
    51   24   94 1    
    52   25   26 2    
    53   25   27 1    
    54   27   28 1    
    55   27   29 1    
    56   27   95 1    
    57   28   96 1    
    58   28   97 1    
    59   28   98 1    
    60   29   30 am   BACKBONE|DICT|INTERRES
    61   29   99 1    
    62   30   31 2    
    63   30   32 1    
    64   32   33 1    
    65   32   34 1    
    66   32  100 1    
    67   33  101 1    
    68   33  102 1    
    69   33  103 1    
    70   34   35 am   BACKBONE|DICT|INTERRES
    71   34  104 1    
    72   35   36 2    
    73   37   38 2    
    74   37   39 am   BACKBONE|DICT|INTERRES
    75   39   40 1    
    76   39  105 1    
    77   40   41 1    
    78   40   42 1    
    79   40  106 1    
    80   41  107 1    
    81   41  108 1    
    82   41  109 1    
    83   42   43 2    
    84   42   44 am   BACKBONE|DICT|INTERRES
    85   44   45 1    
    86   44  110 1    
    87   45   46 1    
    88   45   47 1    
    89   45  111 1    
    90   46  112 1    
    91   46  113 1    
    92   46  114 1    
    93   47   48 2    
    94   47   49 am   BACKBONE|DICT|INTERRES
    95   49   50 1    
    96   49  115 1    
    97   50   51 1    
    98   50   52 1    
    99   50  116 1    
   100   51  117 1    
   101   51  118 1    
   102   51  119 1    
   103   52   53 2    
   104   52   54 am   BACKBONE|DICT|INTERRES
   105   54   55 1    
   106   54  120 1    
   107   55   56 1    
   108   55   57 1    
   109   55  121 1    
   110   56  122 1    
   111   56  123 1    
   112   56  124 1    
   113   57   58 2    
   114   57   59 am   BACKBONE|DICT|INTERRES
   115   59   60 1    
   116   59  125 1    
   117   60   61 1    
   118   60   62 1    
   119   60  126 1    
   120   61  127 1    
   121   61  128 1    
   122   61  129 1    
   123   62   63 2    
   124   62   64 am   BACKBONE|DICT|INTERRES
   125   64   65 1    
   126   64  130 1    
   127   65   66 1    
   128   65   69 1    
   129   65  131 1    
   130   66   67 am   BACKBONE|DICT|INTERRES
   131   66   68 2    
   132   67  132 1    
   133   67  133 1    
   134   69   70 1    
   135   69  134 1    
   136   69  135 1    
   137   70   71 1    
   138   71  136 1    
   139   71  137 1    
@<TRIPOS>SUBSTRUCTURE
     1 UNK         1 GROUP             0       ****    0 ROOT    
