@<TRIPOS>MOLECULE
3R136
137   139    1
SMALL
USER_CHARGES


@<TRIPOS>ATOM
      1 CA         28.5008   22.2195   -4.3372 C.3       0 UNK        -0.1979 
      2 C          28.5776   21.0516   -3.3556 C.2       0 UNK         0.4864 
      3 O          28.3210   19.9173   -3.7560 O.2       0 UNK        -0.5359 
      4 N          28.9301   21.2578   -2.0768 N.am      1 UNK        -0.4318 
      5 CA         29.2234   22.5373   -1.4155 C.3       1 UNK         0.0824 
      6 C6         29.7575   22.3300    0.0222 C.3       12 UNK        -0.0944 
      7 S7         31.3478   21.4389    0.0455 S.3       12 UNK        -0.2672 
      8 C8         32.4750   22.7315    0.6762 C.3       12 UNK         0.0333 
      9 C9         32.4311   22.9817    2.1873 C.ar      12 UNK        -0.0807 
     10 C10        33.4754   23.7123    2.7617 C.ar      12 UNK        -0.0894 
     11 C11        33.5024   23.9744    4.1343 C.ar      12 UNK        -0.0804 
     12 C12        32.4683   23.5001    4.9455 C.ar      12 UNK        -0.0824 
     13 C13        31.4125   22.7713    4.3907 C.ar      12 UNK        -0.0762 
     14 C14        31.3999   22.5162    3.0161 C.ar      12 UNK        -0.0782 
     15 C15        30.2949   22.2367    5.2773 C.3       12 UNK         0.0230 
     16 S16        29.2715   23.5627    5.9936 S.3       12 UNK        -0.2608 
     17 C17        28.5857   24.3773    4.5101 C.3       12 UNK        -0.0989 
     18 CA         29.3243   25.6962    4.1610 C.3       5 UNK         0.0716 
     19 N          29.1621   26.0238    2.7445 N.am      5 UNK        -0.4135 
     20 C          29.9215   26.9030    2.0788 C.2       4 UNK         0.5031 
     21 O          30.9073   27.4575    2.5636 O.2       4 UNK        -0.5229 
     22 CA         29.4970   27.2539    0.6395 C.3       4 UNK         0.0329 
     23 CB         30.4196   26.5569   -0.3724 C.3       4 UNK        -0.2001 
     24 N          28.0887   26.9722    0.3133 N.am      4 UNK        -0.4303 
     25 C          27.0366   27.5292    0.9378 C.2       3 UNK         0.5044 
     26 O          27.1509   28.2581    1.9220 O.2       3 UNK        -0.5152 
     27 CA         25.6188   27.2328    0.4185 C.3       3 UNK         0.0319 
     28 CB         25.1056   28.4151   -0.4183 C.3       3 UNK        -0.2001 
     29 N          25.5010   26.0028   -0.3638 N.am      3 UNK        -0.4354 
     30 C          25.6632   24.7637    0.1177 C.2       2 UNK         0.4964 
     31 O          25.9389   24.5160    1.2932 O.2       2 UNK        -0.5047 
     32 CA         25.5438   23.5999   -0.8873 C.3       2 UNK         0.0288 
     33 CB         24.9759   24.0034   -2.2687 C.3       2 UNK        -0.2113 
     34 N          26.8268   22.9089   -1.0498 N.am      2 UNK        -0.4145 
     35 C          28.0011   23.4713   -1.3775 C.2       1 UNK         0.5006 
     36 O          28.1463   24.6642   -1.6489 O.2       1 UNK        -0.5103 
     37 C          28.9049   26.8609    5.0941 C.2       5 UNK         0.5055 
     38 O          29.3951   26.9262    6.2219 O.2       5 UNK        -0.5220 
     39 N          28.0028   27.7415    4.6320 N.am      6 UNK        -0.4450 
     40 CA         27.4110   28.8234    5.4240 C.3       6 UNK         0.0367 
     41 CB         25.8835   28.6464    5.4366 C.3       6 UNK        -0.1929 
     42 C          27.7710   30.2216    4.8985 C.2       6 UNK         0.5070 
     43 O          27.8605   31.1496    5.7032 O.2       6 UNK        -0.5237 
     44 N          27.9394   30.3678    3.5764 N.am      7 UNK        -0.4739 
     45 CA         28.2197   31.6319    2.8910 C.3       7 UNK         0.0276 
     46 CB         28.2223   31.3913    1.3724 C.3       7 UNK        -0.1927 
     47 C          29.5527   32.2544    3.3311 C.2       7 UNK         0.5013 
     48 O          30.5817   31.5785    3.2754 O.2       7 UNK        -0.5193 
     49 N          29.5201   33.5371    3.7181 N.am      8 UNK        -0.4253 
     50 CA         30.6633   34.2982    4.2418 C.3       8 UNK         0.0242 
     51 CB         30.1733   35.6723    4.7264 C.3       8 UNK        -0.2000 
     52 C          31.8396   34.4625    3.2607 C.2       8 UNK         0.4948 
     53 O          32.9642   34.6947    3.7043 O.2       8 UNK        -0.5275 
     54 N          31.5705   34.3200    1.9559 N.am      9 UNK        -0.4246 
     55 CA         32.5777   34.2617    0.8938 C.3       9 UNK         0.0261 
     56 CB         31.8858   34.4988   -0.4591 C.3       9 UNK        -0.1959 
     57 C          33.3678   32.9364    0.8692 C.2       9 UNK         0.5033 
     58 O          34.4090   32.8793    0.2126 O.2       9 UNK        -0.5390 
     59 N          32.8644   31.9037    1.5564 N.am      10 UNK        -0.4215 
     60 CA         33.4602   30.5794    1.6792 C.3       10 UNK         0.0240 
     61 CB         32.5958   29.5734    0.8976 C.3       10 UNK        -0.1982 
     62 C          33.6342   30.2669    3.1757 C.2       10 UNK         0.4970 
     63 O          34.3340   31.0231    3.8525 O.2       10 UNK        -0.4916 
     64 N          33.0394   29.1742    3.6706 N.am      11 UNK        -0.4279 
     65 CA         33.1942   28.7007    5.0572 C.3       11 UNK         0.1003 
     66 C          32.1614   29.2879    6.0617 C.2       11 UNK         0.5709 
     67 N          31.2327   30.1429    5.6565 N.am      11 UNK        -0.7358 
     68 O          32.2270   28.9877    7.2516 O.2       11 UNK        -0.4999 
     69 C69        33.2514   27.1523    5.1237 C.3       12 UNK        -0.0954 
     70 S70        34.6756   26.4872    4.2009 S.3       12 UNK        -0.2268 
     71 C71        34.6649   24.7495    4.7368 C.3       12 UNK         0.0203 
     72 H72        28.5858   21.8576   -5.3611 H         1 UNK         0.0888 
     73 H73        27.5448   22.7329   -4.2446 H         1 UNK         0.0888 
     74 H74        29.3023   22.9399   -4.1824 H         1 UNK         0.0888 
     75 H75        29.0113   20.4489   -1.4772 H         1 UNK         0.3017 
     76 H76        30.0016   23.0446   -1.9888 H         1 UNK         0.0873 
     77 H77        29.8792   23.2869    0.5336 H         1 UNK         0.0745 
     78 H78        29.0425   21.7624    0.6210 H         1 UNK         0.0745 
     79 H79        32.2798   23.6680    0.1520 H         1 UNK         0.0705 
     80 H80        33.4890   22.4359    0.4027 H         1 UNK         0.0705 
     81 H81        34.2785   24.0812    2.1378 H         1 UNK         0.1334 
     82 H82        32.4810   23.6962    6.0091 H         1 UNK         0.1417 
     83 H83        30.5824   21.9435    2.6058 H         1 UNK         0.1562 
     84 H84        30.7336   21.6555    6.0895 H         1 UNK         0.0748 
     85 H85        29.6511   21.5492    4.7264 H         1 UNK         0.0748 
     86 H86        27.5181   24.5509    4.6597 H         1 UNK         0.0940 
     87 H87        28.6508   23.6738    3.6784 H         1 UNK         0.0940 
     88 H88        30.3916   25.5322    4.3181 H         1 UNK         0.0703 
     89 H89        28.3662   25.6217    2.2703 H         1 UNK         0.3081 
     90 H90        29.6332   28.3306    0.5269 H         1 UNK         0.0719 
     91 H91        30.3527   25.4725   -0.2991 H         1 UNK         0.0809 
     92 H92        30.1758   26.8405   -1.3962 H         1 UNK         0.0809 
     93 H93        31.4622   26.8275   -0.2012 H         1 UNK         0.0809 
     94 H94        27.9216   26.3439   -0.4668 H         1 UNK         0.2990 
     95 H95        24.9733   27.1314    1.2935 H         1 UNK         0.0690 
     96 H96        25.6987   28.5578   -1.3225 H         1 UNK         0.0788 
     97 H97        25.1504   29.3452    0.1508 H         1 UNK         0.0788 
     98 H98        24.0667   28.2706   -0.7156 H         1 UNK         0.0788 
     99 H99        25.3116   26.1073   -1.3503 H         1 UNK         0.2993 
    100 H100       24.8525   22.8840   -0.4397 H         1 UNK         0.0949 
    101 H101       25.6326   24.6888   -2.8060 H         1 UNK         0.0767 
    102 H102       24.8371   23.1259   -2.9008 H         1 UNK         0.0767 
    103 H103       23.9993   24.4799   -2.1717 H         1 UNK         0.0767 
    104 H104       26.8217   21.9222   -0.8322 H         1 UNK         0.3013 
    105 H105       27.6921   27.6748    3.6673 H         1 UNK         0.3121 
    106 H106       27.7606   28.7747    6.4574 H         1 UNK         0.0774 
    107 H107       25.4032   29.4327    6.0206 H         1 UNK         0.0815 
    108 H108       25.4646   28.6840    4.4300 H         1 UNK         0.0815 
    109 H109       25.5997   27.6931    5.8825 H         1 UNK         0.0815 
    110 H110       27.7951   29.5599    2.9755 H         1 UNK         0.2987 
    111 H111       27.4078   32.3214    3.1304 H         1 UNK         0.0949 
    112 H112       28.9989   30.6836    1.0799 H         1 UNK         0.0806 
    113 H113       27.2653   30.9960    1.0315 H         1 UNK         0.0806 
    114 H114       28.4023   32.3184    0.8268 H         1 UNK         0.0806 
    115 H115       28.6304   34.0150    3.7218 H         1 UNK         0.3010 
    116 H116       31.0474   33.7489    5.1040 H         1 UNK         0.0829 
    117 H117       30.9940   36.2528    5.1504 H         1 UNK         0.0813 
    118 H118       29.7465   36.2592    3.9124 H         1 UNK         0.0813 
    119 H119       29.4160   35.5730    5.5042 H         1 UNK         0.0813 
    120 H120       30.6125   34.1547    1.6845 H         1 UNK         0.3038 
    121 H121       33.2971   35.0669    1.0572 H         1 UNK         0.0769 
    122 H122       32.6116   34.4998   -1.2735 H         1 UNK         0.0811 
    123 H123       31.3761   35.4621   -0.4819 H         1 UNK         0.0811 
    124 H124       31.1515   33.7228   -0.6791 H         1 UNK         0.0811 
    125 H125       32.0305   32.0423    2.1223 H         1 UNK         0.3204 
    126 H126       34.4635   30.5690    1.2487 H         1 UNK         0.0748 
    127 H127       32.9707   28.5545    1.0016 H         1 UNK         0.0771 
    128 H128       31.5604   29.5956    1.2370 H         1 UNK         0.0771 
    129 H129       32.5946   29.8057   -0.1672 H         1 UNK         0.0771 
    130 H130       32.4166   28.6207    3.0887 H         1 UNK         0.2980 
    131 H131       34.1577   29.0550    5.4283 H         1 UNK         0.0545 
    132 H132       31.1725   30.4438    4.6886 H         1 UNK         0.3459 
    133 H133       30.5821   30.5104    6.3307 H         1 UNK         0.3459 
    134 H134       33.3341   26.8112    6.1572 H         1 UNK         0.0616 
    135 H135       32.3356   26.7158    4.7265 H         1 UNK         0.0616 
    136 H136       34.6465   24.7052    5.8268 H         1 UNK         0.0634 
    137 H137       35.6009   24.2827    4.4273 H         1 UNK         0.0634 
@<TRIPOS>BOND
     1    1    2 1    
     2    1   72 1    
     3    1   73 1    
     4    1   74 1    
     5    2    3 2    
     6    2    4 am   BACKBONE|DICT|INTERRES
     7    4    5 1    
     8    4   75 1    
     9    5    6 1    
    10    5   35 1    
    11    5   76 1    
    12    6    7 1    
    13    6   77 1    
    14    6   78 1    
    15    7    8 1    
    16    8    9 1    
    17    8   79 1    
    18    8   80 1    
    19    9   10 ar   
    20    9   14 ar   
    21   10   11 ar   
    22   10   81 1    
    23   11   12 ar   
    24   11   71 1    
    25   12   13 ar   
    26   12   82 1    
    27   13   14 ar   
    28   13   15 1    
    29   14   83 1    
    30   15   16 1    
    31   15   84 1    
    32   15   85 1    
    33   16   17 1    
    34   17   18 1    
    35   17   86 1    
    36   17   87 1    
    37   18   19 1    
    38   18   37 1    
    39   18   88 1    
    40   19   20 am   BACKBONE|DICT|INTERRES
    41   19   89 1    
    42   20   21 2    
    43   20   22 1    
    44   22   23 1    
    45   22   24 1    
    46   22   90 1    
    47   23   91 1    
    48   23   92 1    
    49   23   93 1    
    50   24   25 am   BACKBONE|DICT|INTERRES
    51   24   94 1    
    52   25   26 2    
    53   25   27 1    
    54   27   28 1    
    55   27   29 1    
    56   27   95 1    
    57   28   96 1    
    58   28   97 1    
    59   28   98 1    
    60   29   30 am   BACKBONE|DICT|INTERRES
    61   29   99 1    
    62   30   31 2    
    63   30   32 1    
    64   32   33 1    
    65   32   34 1    
    66   32  100 1    
    67   33  101 1    
    68   33  102 1    
    69   33  103 1    
    70   34   35 am   BACKBONE|DICT|INTERRES
    71   34  104 1    
    72   35   36 2    
    73   37   38 2    
    74   37   39 am   BACKBONE|DICT|INTERRES
    75   39   40 1    
    76   39  105 1    
    77   40   41 1    
    78   40   42 1    
    79   40  106 1    
    80   41  107 1    
    81   41  108 1    
    82   41  109 1    
    83   42   43 2    
    84   42   44 am   BACKBONE|DICT|INTERRES
    85   44   45 1    
    86   44  110 1    
    87   45   46 1    
    88   45   47 1    
    89   45  111 1    
    90   46  112 1    
    91   46  113 1    
    92   46  114 1    
    93   47   48 2    
    94   47   49 am   BACKBONE|DICT|INTERRES
    95   49   50 1    
    96   49  115 1    
    97   50   51 1    
    98   50   52 1    
    99   50  116 1    
   100   51  117 1    
   101   51  118 1    
   102   51  119 1    
   103   52   53 2    
   104   52   54 am   BACKBONE|DICT|INTERRES
   105   54   55 1    
   106   54  120 1    
   107   55   56 1    
   108   55   57 1    
   109   55  121 1    
   110   56  122 1    
   111   56  123 1    
   112   56  124 1    
   113   57   58 2    
   114   57   59 am   BACKBONE|DICT|INTERRES
   115   59   60 1    
   116   59  125 1    
   117   60   61 1    
   118   60   62 1    
   119   60  126 1    
   120   61  127 1    
   121   61  128 1    
   122   61  129 1    
   123   62   63 2    
   124   62   64 am   BACKBONE|DICT|INTERRES
   125   64   65 1    
   126   64  130 1    
   127   65   66 1    
   128   65   69 1    
   129   65  131 1    
   130   66   67 am   BACKBONE|DICT|INTERRES
   131   66   68 2    
   132   67  132 1    
   133   67  133 1    
   134   69   70 1    
   135   69  134 1    
   136   69  135 1    
   137   70   71 1    
   138   71  136 1    
   139   71  137 1    
@<TRIPOS>SUBSTRUCTURE
     1 UNK         1 GROUP             0       ****    0 ROOT    
