@<TRIPOS>MOLECULE
3R136
137   139    1
SMALL
USER_CHARGES


@<TRIPOS>ATOM
      1 CA         30.3896   23.9223    5.8477 C.3       0 UNK        -0.1979 
      2 C          29.2121   23.6418    4.9274 C.2       0 UNK         0.4864 
      3 O          28.0676   23.6148    5.3842 O.2       0 UNK        -0.5359 
      4 N          29.4813   23.4296    3.6324 N.am      1 UNK        -0.4318 
      5 CA         28.4781   23.1447    2.5992 C.3       1 UNK         0.0824 
      6 C6         29.0805   22.3625    1.4037 C.3       12 UNK        -0.0944 
      7 S7         29.7708   20.7584    1.9581 S.3       12 UNK        -0.2672 
      8 C8         31.0710   20.3838    0.7315 C.3       12 UNK         0.0333 
      9 C9         32.0395   21.5386    0.5152 C.ar      12 UNK        -0.0807 
     10 C10        32.7518   22.0869    1.5873 C.ar      12 UNK        -0.0894 
     11 C11        33.5526   23.2180    1.3997 C.ar      12 UNK        -0.0804 
     12 C12        33.6756   23.7723    0.1230 C.ar      12 UNK        -0.0824 
     13 C13        32.9846   23.2179   -0.9581 C.ar      12 UNK        -0.0762 
     14 C14        32.1768   22.0962   -0.7587 C.ar      12 UNK        -0.0782 
     15 C15        33.0412   23.8802   -2.3260 C.3       12 UNK         0.0230 
     16 S16        31.4706   24.7176   -2.7203 S.3       12 UNK        -0.2608 
     17 C17        31.2707   25.7885   -1.2568 C.3       12 UNK        -0.0989 
     18 CA         30.1163   26.8123   -1.3837 C.3       5 UNK         0.0716 
     19 N          28.7950   26.1853   -1.4486 N.am      5 UNK        -0.4135 
     20 C          28.0938   25.9987   -2.5746 C.2       4 UNK         0.5031 
     21 O          28.4841   26.3104   -3.7010 O.2       4 UNK        -0.5229 
     22 CA         26.6922   25.3900   -2.4115 C.3       4 UNK         0.0329 
     23 CB         26.7744   23.8956   -2.0572 C.3       4 UNK        -0.2001 
     24 N          25.9133   26.0973   -1.3963 N.am      4 UNK        -0.4303 
     25 C          25.5053   27.3707   -1.4797 C.2       3 UNK         0.5044 
     26 O          25.6399   28.0655   -2.4875 O.2       3 UNK        -0.5152 
     27 CA         24.8651   27.9981   -0.2282 C.3       3 UNK         0.0319 
     28 CB         23.3306   27.8534   -0.2481 C.3       3 UNK        -0.2001 
     29 N          25.4445   27.5376    1.0422 N.am      3 UNK        -0.4354 
     30 C          25.3555   26.3307    1.6169 C.2       2 UNK         0.4964 
     31 O          24.7359   25.3759    1.1434 O.2       2 UNK        -0.5047 
     32 CA         26.1027   26.1635    2.9454 C.3       2 UNK         0.0288 
     33 CB         25.1223   26.2449    4.1260 C.3       2 UNK        -0.2113 
     34 N          26.8543   24.9096    3.0345 N.am      2 UNK        -0.4145 
     35 C          27.7861   24.4586    2.1815 C.2       1 UNK         0.5006 
     36 O          28.1499   25.0612    1.1655 O.2       1 UNK        -0.5103 
     37 C          30.1802   27.8126   -0.2185 C.2       5 UNK         0.5055 
     38 O          30.6439   28.9357   -0.4232 O.2       5 UNK        -0.5220 
     39 N          29.7677   27.3878    0.9855 N.am      6 UNK        -0.4450 
     40 CA         29.9240   28.1700    2.2126 C.3       6 UNK         0.0367 
     41 CB         29.9083   27.2365    3.4347 C.3       6 UNK        -0.1929 
     42 C          28.8566   29.2649    2.3445 C.2       6 UNK         0.5070 
     43 O          27.7355   29.1031    1.8538 O.2       6 UNK        -0.5237 
     44 N          29.2215   30.3431    3.0419 N.am      7 UNK        -0.4739 
     45 CA         28.3741   31.5021    3.3177 C.3       7 UNK         0.0276 
     46 CB         28.3795   32.4535    2.1011 C.3       7 UNK        -0.1927 
     47 C          28.8397   32.1684    4.6235 C.2       7 UNK         0.5013 
     48 O          29.4478   31.5021    5.4643 O.2       7 UNK        -0.5193 
     49 N          28.5772   33.4753    4.7747 N.am      8 UNK        -0.4253 
     50 CA         28.9637   34.2936    5.9343 C.3       8 UNK         0.0242 
     51 CB         28.3652   35.7014    5.7811 C.3       8 UNK        -0.2000 
     52 C          30.4843   34.3800    6.1776 C.2       8 UNK         0.4948 
     53 O          30.9019   34.6056    7.3133 O.2       8 UNK        -0.5275 
     54 N          31.2807   34.1623    5.1221 N.am      9 UNK        -0.4246 
     55 CA         32.7415   34.0480    5.1608 C.3       9 UNK         0.0261 
     56 CB         33.2978   34.4632    3.7864 C.3       9 UNK        -0.1959 
     57 C          33.2386   32.6395    5.5591 C.2       9 UNK         0.5033 
     58 O          34.4371   32.3791    5.4369 O.2       9 UNK        -0.5390 
     59 N          32.3293   31.7566    6.0016 N.am      10 UNK        -0.4215 
     60 CA         32.5219   30.3306    6.2809 C.3       10 UNK         0.0240 
     61 CB         33.6038   30.0875    7.3596 C.3       10 UNK        -0.1982 
     62 C          32.7246   29.5402    4.9755 C.2       10 UNK         0.4970 
     63 O          32.1824   29.9403    3.9425 O.2       10 UNK        -0.4916 
     64 N          33.4519   28.4184    5.0483 N.am      11 UNK        -0.4279 
     65 CA         33.7191   27.5100    3.9200 C.3       11 UNK         0.1003 
     66 C          34.8000   28.0056    2.9134 C.2       11 UNK         0.5709 
     67 N          35.4632   29.1319    3.1480 N.am      11 UNK        -0.7358 
     68 O          35.0362   27.3613    1.8948 O.2       11 UNK        -0.4999 
     69 C69        33.9849   26.0570    4.4194 C.3       12 UNK        -0.0954 
     70 S70        32.9776   24.8351    3.5199 S.3       12 UNK        -0.2268 
     71 C71        34.2188   23.8932    2.5864 C.3       12 UNK         0.0203 
     72 H72        31.2724   23.3624    5.5400 H         1 UNK         0.0888 
     73 H73        30.1521   23.6336    6.8713 H         1 UNK         0.0888 
     74 H74        30.6313   24.9849    5.8390 H         1 UNK         0.0888 
     75 H75        30.4377   23.4735    3.3090 H         1 UNK         0.3017 
     76 H76        27.7074   22.5046    3.0356 H         1 UNK         0.0873 
     77 H77        29.8483   22.9602    0.9110 H         1 UNK         0.0745 
     78 H78        28.3166   22.1615    0.6507 H         1 UNK         0.0745 
     79 H79        31.6301   19.5089    1.0655 H         1 UNK         0.0705 
     80 H80        30.5884   20.1006   -0.2052 H         1 UNK         0.0705 
     81 H81        32.6350   21.6701    2.5785 H         1 UNK         0.1334 
     82 H82        34.2734   24.6628   -0.0187 H         1 UNK         0.1417 
     83 H83        31.6172   21.6912   -1.5911 H         1 UNK         0.1562 
     84 H84        33.2491   23.1290   -3.0893 H         1 UNK         0.0748 
     85 H85        33.8562   24.6041   -2.3750 H         1 UNK         0.0748 
     86 H86        32.2205   26.3029   -1.0942 H         1 UNK         0.0940 
     87 H87        31.1112   25.1550   -0.3816 H         1 UNK         0.0940 
     88 H88        30.2828   27.3959   -2.2920 H         1 UNK         0.0703 
     89 H89        28.3934   25.8783   -0.5677 H         1 UNK         0.3081 
     90 H90        26.1692   25.4867   -3.3653 H         1 UNK         0.0719 
     91 H91        27.2518   23.7310   -1.0909 H         1 UNK         0.0809 
     92 H92        25.7835   23.4426   -2.0212 H         1 UNK         0.0809 
     93 H93        27.3536   23.3502   -2.8035 H         1 UNK         0.0809 
     94 H94        25.7051   25.6002   -0.5359 H         1 UNK         0.2990 
     95 H95        25.0910   29.0649   -0.2717 H         1 UNK         0.0690 
     96 H96        22.8751   28.3396    0.6145 H         1 UNK         0.0788 
     97 H97        23.0160   26.8095   -0.2511 H         1 UNK         0.0788 
     98 H98        22.9106   28.3177   -1.1414 H         1 UNK         0.0788 
     99 H99        26.0818   28.2077    1.4705 H         1 UNK         0.2993 
    100 H100       26.8124   26.9823    3.0439 H         1 UNK         0.0949 
    101 H101       24.5624   27.1811    4.1061 H         1 UNK         0.0767 
    102 H102       24.3973   25.4299    4.1031 H         1 UNK         0.0767 
    103 H103       25.6463   26.2022    5.0812 H         1 UNK         0.0767 
    104 H104       26.7125   24.3675    3.8787 H         1 UNK         0.3013 
    105 H105       29.3210   26.4798    1.0784 H         1 UNK         0.3121 
    106 H106       30.9032   28.6490    2.1670 H         1 UNK         0.0774 
    107 H107       30.5973   26.4048    3.3073 H         1 UNK         0.0815 
    108 H108       28.9247   26.8181    3.6283 H         1 UNK         0.0815 
    109 H109       30.2086   27.7722    4.3356 H         1 UNK         0.0815 
    110 H110       30.1409   30.3617    3.4752 H         1 UNK         0.2987 
    111 H111       27.3524   31.1575    3.4922 H         1 UNK         0.0949 
    112 H112       29.3657   32.8884    1.9336 H         1 UNK         0.0806 
    113 H113       28.0932   31.9291    1.1890 H         1 UNK         0.0806 
    114 H114       27.6684   33.2708    2.2235 H         1 UNK         0.0806 
    115 H115       28.0730   33.9497    4.0393 H         1 UNK         0.3010 
    116 H116       28.5249   33.8304    6.8207 H         1 UNK         0.0829 
    117 H117       27.2778   35.6663    5.7106 H         1 UNK         0.0813 
    118 H118       28.6107   36.3260    6.6414 H         1 UNK         0.0813 
    119 H119       28.7448   36.2079    4.8927 H         1 UNK         0.0813 
    120 H120       30.8423   33.9887    4.2294 H         1 UNK         0.3038 
    121 H121       33.1294   34.7448    5.9069 H         1 UNK         0.0769 
    122 H122       32.9808   33.7771    2.9998 H         1 UNK         0.0811 
    123 H123       34.3886   34.4727    3.7895 H         1 UNK         0.0811 
    124 H124       32.9710   35.4662    3.5112 H         1 UNK         0.0811 
    125 H125       31.3550   32.0388    5.9840 H         1 UNK         0.3204 
    126 H126       31.5715   29.9847    6.6902 H         1 UNK         0.0748 
    127 H127       33.4542   30.7423    8.2182 H         1 UNK         0.0771 
    128 H128       33.5670   29.0643    7.7350 H         1 UNK         0.0771 
    129 H129       34.6113   30.2643    6.9815 H         1 UNK         0.0771 
    130 H130       33.8778   28.1721    5.9291 H         1 UNK         0.2980 
    131 H131       32.8017   27.4996    3.3305 H         1 UNK         0.0545 
    132 H132       36.1559   29.4413    2.4850 H         1 UNK         0.3459 
    133 H133       35.2637   29.6858    3.9658 H         1 UNK         0.3459 
    134 H134       35.0423   25.7902    4.3701 H         1 UNK         0.0616 
    135 H135       33.7127   25.9520    5.4708 H         1 UNK         0.0616 
    136 H136       35.0137   24.5599    2.2487 H         1 UNK         0.0634 
    137 H137       34.6823   23.1503    3.2370 H         1 UNK         0.0634 
@<TRIPOS>BOND
     1    1    2 1    
     2    1   72 1    
     3    1   73 1    
     4    1   74 1    
     5    2    3 2    
     6    2    4 am   BACKBONE|DICT|INTERRES
     7    4    5 1    
     8    4   75 1    
     9    5    6 1    
    10    5   35 1    
    11    5   76 1    
    12    6    7 1    
    13    6   77 1    
    14    6   78 1    
    15    7    8 1    
    16    8    9 1    
    17    8   79 1    
    18    8   80 1    
    19    9   10 ar   
    20    9   14 ar   
    21   10   11 ar   
    22   10   81 1    
    23   11   12 ar   
    24   11   71 1    
    25   12   13 ar   
    26   12   82 1    
    27   13   14 ar   
    28   13   15 1    
    29   14   83 1    
    30   15   16 1    
    31   15   84 1    
    32   15   85 1    
    33   16   17 1    
    34   17   18 1    
    35   17   86 1    
    36   17   87 1    
    37   18   19 1    
    38   18   37 1    
    39   18   88 1    
    40   19   20 am   BACKBONE|DICT|INTERRES
    41   19   89 1    
    42   20   21 2    
    43   20   22 1    
    44   22   23 1    
    45   22   24 1    
    46   22   90 1    
    47   23   91 1    
    48   23   92 1    
    49   23   93 1    
    50   24   25 am   BACKBONE|DICT|INTERRES
    51   24   94 1    
    52   25   26 2    
    53   25   27 1    
    54   27   28 1    
    55   27   29 1    
    56   27   95 1    
    57   28   96 1    
    58   28   97 1    
    59   28   98 1    
    60   29   30 am   BACKBONE|DICT|INTERRES
    61   29   99 1    
    62   30   31 2    
    63   30   32 1    
    64   32   33 1    
    65   32   34 1    
    66   32  100 1    
    67   33  101 1    
    68   33  102 1    
    69   33  103 1    
    70   34   35 am   BACKBONE|DICT|INTERRES
    71   34  104 1    
    72   35   36 2    
    73   37   38 2    
    74   37   39 am   BACKBONE|DICT|INTERRES
    75   39   40 1    
    76   39  105 1    
    77   40   41 1    
    78   40   42 1    
    79   40  106 1    
    80   41  107 1    
    81   41  108 1    
    82   41  109 1    
    83   42   43 2    
    84   42   44 am   BACKBONE|DICT|INTERRES
    85   44   45 1    
    86   44  110 1    
    87   45   46 1    
    88   45   47 1    
    89   45  111 1    
    90   46  112 1    
    91   46  113 1    
    92   46  114 1    
    93   47   48 2    
    94   47   49 am   BACKBONE|DICT|INTERRES
    95   49   50 1    
    96   49  115 1    
    97   50   51 1    
    98   50   52 1    
    99   50  116 1    
   100   51  117 1    
   101   51  118 1    
   102   51  119 1    
   103   52   53 2    
   104   52   54 am   BACKBONE|DICT|INTERRES
   105   54   55 1    
   106   54  120 1    
   107   55   56 1    
   108   55   57 1    
   109   55  121 1    
   110   56  122 1    
   111   56  123 1    
   112   56  124 1    
   113   57   58 2    
   114   57   59 am   BACKBONE|DICT|INTERRES
   115   59   60 1    
   116   59  125 1    
   117   60   61 1    
   118   60   62 1    
   119   60  126 1    
   120   61  127 1    
   121   61  128 1    
   122   61  129 1    
   123   62   63 2    
   124   62   64 am   BACKBONE|DICT|INTERRES
   125   64   65 1    
   126   64  130 1    
   127   65   66 1    
   128   65   69 1    
   129   65  131 1    
   130   66   67 am   BACKBONE|DICT|INTERRES
   131   66   68 2    
   132   67  132 1    
   133   67  133 1    
   134   69   70 1    
   135   69  134 1    
   136   69  135 1    
   137   70   71 1    
   138   71  136 1    
   139   71  137 1    
@<TRIPOS>SUBSTRUCTURE
     1 UNK         1 GROUP             0       ****    0 ROOT    
