@<TRIPOS>MOLECULE
3R136
137   139    1
SMALL
USER_CHARGES


@<TRIPOS>ATOM
      1 CA         33.3493   20.0172   -1.3192 C.3       0 UNK        -0.1979 
      2 C          32.7429   21.2838   -0.7327 C.2       0 UNK         0.4864 
      3 O          33.4544   22.0676   -0.1029 O.2       0 UNK        -0.5359 
      4 N          31.4380   21.4892   -0.9360 N.am      1 UNK        -0.4318 
      5 CA         30.6767   22.6511   -0.4840 C.3       1 UNK         0.0824 
      6 C6         30.2511   22.5194    1.0010 C.3       12 UNK        -0.0944 
      7 S7         29.7605   24.1085    1.7442 S.3       12 UNK        -0.2672 
      8 C8         29.4731   23.5646    3.4522 C.3       12 UNK         0.0333 
      9 C9         29.0373   24.7259    4.3281 C.ar      12 UNK        -0.0807 
     10 C10        29.9938   25.5204    4.9666 C.ar      12 UNK        -0.0894 
     11 C11        29.5987   26.5794    5.7881 C.ar      12 UNK        -0.0804 
     12 C12        28.2384   26.8535    5.9526 C.ar      12 UNK        -0.0824 
     13 C13        27.2719   26.0662    5.3184 C.ar      12 UNK        -0.0762 
     14 C14        27.6784   24.9963    4.5142 C.ar      12 UNK        -0.0782 
     15 C15        25.7917   26.3775    5.5175 C.3       12 UNK         0.0230 
     16 S16        24.8685   26.5813    3.9558 S.3       12 UNK        -0.2608 
     17 C17        25.9210   27.7427    3.0199 C.3       12 UNK        -0.0989 
     18 CA         26.4053   27.1021    1.6884 C.3       5 UNK         0.0716 
     19 N          25.3433   26.8310    0.7082 N.am      5 UNK        -0.4135 
     20 C          24.3845   27.6580    0.2563 C.2       4 UNK         0.5031 
     21 O          24.1898   28.7951    0.6884 O.2       4 UNK        -0.5229 
     22 CA         23.4783   27.1569   -0.8901 C.3       4 UNK         0.0329 
     23 CB         23.4884   28.1466   -2.0694 C.3       4 UNK        -0.2001 
     24 N          23.8502   25.8352   -1.3964 N.am      4 UNK        -0.4303 
     25 C          23.4753   24.6617   -0.8700 C.2       3 UNK         0.5044 
     26 O          22.6922   24.5499    0.0730 O.2       3 UNK        -0.5152 
     27 CA         24.1133   23.3989   -1.4830 C.3       3 UNK         0.0319 
     28 CB         23.1646   22.7617   -2.5110 C.3       3 UNK        -0.2001 
     29 N          25.4193   23.6424   -2.1130 N.am      3 UNK        -0.4354 
     30 C          26.5124   24.0589   -1.4587 C.2       2 UNK         0.4964 
     31 O          26.5373   24.2882   -0.2475 O.2       2 UNK        -0.5047 
     32 CA         27.7554   24.3534   -2.3097 C.3       2 UNK         0.0288 
     33 CB         27.7850   25.8397   -2.7051 C.3       2 UNK        -0.2113 
     34 N          28.9704   24.0369   -1.5616 N.am      2 UNK        -0.4145 
     35 C          29.4692   22.8033   -1.4244 C.2       1 UNK         0.5006 
     36 O          29.0134   21.8087   -1.9990 O.2       1 UNK        -0.5103 
     37 C          27.5652   27.8952    1.0582 C.2       5 UNK         0.5055 
     38 O          27.3605   28.6770    0.1267 O.2       5 UNK        -0.5220 
     39 N          28.7801   27.6697    1.5811 N.am      6 UNK        -0.4450 
     40 CA         29.9983   28.3647    1.1552 C.3       6 UNK         0.0367 
     41 CB         31.2378   27.6630    1.7339 C.3       6 UNK        -0.1929 
     42 C          29.9806   29.8559    1.5281 C.2       6 UNK         0.5070 
     43 O          30.3225   30.6884    0.6887 O.2       6 UNK        -0.5237 
     44 N          29.5693   30.1558    2.7704 N.am      7 UNK        -0.4739 
     45 CA         29.3173   31.4701    3.3906 C.3       7 UNK         0.0276 
     46 CB         28.1372   32.1722    2.6919 C.3       7 UNK        -0.1927 
     47 C          30.5215   32.4296    3.5144 C.2       7 UNK         0.5013 
     48 O          30.5585   33.2197    4.4592 O.2       7 UNK        -0.5193 
     49 N          31.4608   32.3685    2.5662 N.am      8 UNK        -0.4253 
     50 CA         32.6953   33.1496    2.4982 C.3       8 UNK         0.0242 
     51 CB         33.2019   33.1069    1.0427 C.3       8 UNK        -0.2000 
     52 C          33.7649   32.6521    3.4912 C.2       8 UNK         0.4948 
     53 O          33.4968   31.7803    4.3209 O.2       8 UNK        -0.5275 
     54 N          34.9865   33.1924    3.3597 N.am      9 UNK        -0.4246 
     55 CA         36.1691   32.9102    4.1886 C.3       9 UNK         0.0261 
     56 CB         37.3588   33.7277    3.6591 C.3       9 UNK        -0.1959 
     57 C          36.5600   31.4240    4.3216 C.2       9 UNK         0.5033 
     58 O          37.2348   31.0701    5.2894 O.2       9 UNK        -0.5390 
     59 N          36.0941   30.5737    3.3951 N.am      10 UNK        -0.4215 
     60 CA         36.1624   29.1104    3.4648 C.3       10 UNK         0.0240 
     61 CB         35.5438   28.5180    2.1881 C.3       10 UNK        -0.1982 
     62 C          35.4876   28.5097    4.7160 C.2       10 UNK         0.4970 
     63 O          35.9074   27.4402    5.1597 O.2       10 UNK        -0.4916 
     64 N          34.4883   29.2069    5.2761 N.am      11 UNK        -0.4279 
     65 CA         33.8769   28.8892    6.5752 C.3       11 UNK         0.1003 
     66 C          34.7572   29.2588    7.8073 C.2       11 UNK         0.5709 
     67 N          35.8895   29.9379    7.6599 N.am      11 UNK        -0.7358 
     68 O          34.4094   28.9050    8.9316 O.2       11 UNK        -0.4999 
     69 C69        32.4540   29.4959    6.7026 C.3       12 UNK        -0.0954 
     70 S70        31.2753   28.7672    5.5196 S.3       12 UNK        -0.2268 
     71 C71        30.6387   27.4001    6.5322 C.3       12 UNK         0.0203 
     72 H72        32.6077   19.4167   -1.8460 H         1 UNK         0.0888 
     73 H73        33.7793   19.4055   -0.5266 H         1 UNK         0.0888 
     74 H74        34.1418   20.2711   -2.0226 H         1 UNK         0.0888 
     75 H75        30.8915   20.8445   -1.4952 H         1 UNK         0.3017 
     76 H76        31.3093   23.5339   -0.6045 H         1 UNK         0.0873 
     77 H77        31.0848   22.1357    1.5916 H         1 UNK         0.0745 
     78 H78        29.4417   21.7957    1.1180 H         1 UNK         0.0745 
     79 H79        28.7149   22.7798    3.4603 H         1 UNK         0.0705 
     80 H80        30.3856   23.1182    3.8507 H         1 UNK         0.0705 
     81 H81        31.0460   25.3082    4.8327 H         1 UNK         0.1334 
     82 H82        27.9338   27.6751    6.5869 H         1 UNK         0.1417 
     83 H83        26.9349   24.3814    4.0245 H         1 UNK         0.1562 
     84 H84        25.6652   27.2860    6.1086 H         1 UNK         0.0748 
     85 H85        25.3352   25.5718    6.0937 H         1 UNK         0.0748 
     86 H86        26.7695   28.0403    3.6367 H         1 UNK         0.0940 
     87 H87        25.3695   28.6673    2.8531 H         1 UNK         0.0940 
     88 H88        26.8151   26.1181    1.9239 H         1 UNK         0.0703 
     89 H89        25.4287   25.9225    0.2673 H         1 UNK         0.3081 
     90 H90        22.4607   27.1105   -0.4962 H         1 UNK         0.0719 
     91 H91        23.1450   29.1339   -1.7573 H         1 UNK         0.0809 
     92 H92        24.4897   28.2675   -2.4851 H         1 UNK         0.0809 
     93 H93        22.8272   27.8173   -2.8712 H         1 UNK         0.0809 
     94 H94        24.4902   25.8177   -2.1767 H         1 UNK         0.2990 
     95 H95        24.2655   22.6859   -0.6698 H         1 UNK         0.0690 
     96 H96        23.5624   21.8194   -2.8885 H         1 UNK         0.0788 
     97 H97        22.9901   23.4198   -3.3633 H         1 UNK         0.0788 
     98 H98        22.1936   22.5442   -2.0634 H         1 UNK         0.0788 
     99 H99        25.4744   23.4887   -3.1103 H         1 UNK         0.2993 
    100 H100       27.7243   23.7464   -3.2176 H         1 UNK         0.0949 
    101 H101       27.7989   26.4925   -1.8308 H         1 UNK         0.0767 
    102 H102       28.6632   26.0712   -3.3083 H         1 UNK         0.0767 
    103 H103       26.9089   26.1068   -3.2973 H         1 UNK         0.0767 
    104 H104       29.3551   24.7777   -0.9932 H         1 UNK         0.3013 
    105 H105       28.8799   26.9894    2.3224 H         1 UNK         0.3121 
    106 H106       30.0575   28.3019    0.0662 H         1 UNK         0.0774 
    107 H107       31.1944   27.5846    2.8197 H         1 UNK         0.0815 
    108 H108       31.3455   26.6560    1.3320 H         1 UNK         0.0815 
    109 H109       32.1483   28.2074    1.4811 H         1 UNK         0.0815 
    110 H110       29.3910   29.3711    3.3816 H         1 UNK         0.2987 
    111 H111       29.0083   31.2501    4.4140 H         1 UNK         0.0949 
    112 H112       27.2453   31.5453    2.6938 H         1 UNK         0.0806 
    113 H113       27.8803   33.1034    3.1989 H         1 UNK         0.0806 
    114 H114       28.3696   32.4202    1.6557 H         1 UNK         0.0806 
    115 H115       31.2897   31.7115    1.8085 H         1 UNK         0.3010 
    116 H116       32.4602   34.1837    2.7585 H         1 UNK         0.0829 
    117 H117       34.0446   33.7803    0.8841 H         1 UNK         0.0813 
    118 H118       32.4218   33.4147    0.3457 H         1 UNK         0.0813 
    119 H119       33.5213   32.1036    0.7567 H         1 UNK         0.0813 
    120 H120       35.1137   33.8929    2.6434 H         1 UNK         0.3038 
    121 H121       35.9374   33.2609    5.1963 H         1 UNK         0.0769 
    122 H122       37.1482   34.7971    3.6789 H         1 UNK         0.0811 
    123 H123       37.6134   33.4524    2.6348 H         1 UNK         0.0811 
    124 H124       38.2482   33.5657    4.2701 H         1 UNK         0.0811 
    125 H125       35.5474   30.9633    2.6419 H         1 UNK         0.3204 
    126 H126       37.2179   28.8329    3.4995 H         1 UNK         0.0748 
    127 H127       35.5923   27.4281    2.1992 H         1 UNK         0.0771 
    128 H128       34.4946   28.7965    2.0837 H         1 UNK         0.0771 
    129 H129       36.0726   28.8547    1.2962 H         1 UNK         0.0771 
    130 H130       34.1883   30.0831    4.8556 H         1 UNK         0.2980 
    131 H131       33.7688   27.8043    6.6253 H         1 UNK         0.0545 
    132 H132       36.2202   30.2340    6.7477 H         1 UNK         0.3459 
    133 H133       36.4361   30.1530    8.4781 H         1 UNK         0.3459 
    134 H134       32.4846   30.5741    6.5381 H         1 UNK         0.0616 
    135 H135       32.0545   29.3608    7.7093 H         1 UNK         0.0616 
    136 H136       30.2098   27.8012    7.4519 H         1 UNK         0.0634 
    137 H137       31.4679   26.7585    6.8341 H         1 UNK         0.0634 
@<TRIPOS>BOND
     1    1    2 1    
     2    1   72 1    
     3    1   73 1    
     4    1   74 1    
     5    2    3 2    
     6    2    4 am   BACKBONE|DICT|INTERRES
     7    4    5 1    
     8    4   75 1    
     9    5    6 1    
    10    5   35 1    
    11    5   76 1    
    12    6    7 1    
    13    6   77 1    
    14    6   78 1    
    15    7    8 1    
    16    8    9 1    
    17    8   79 1    
    18    8   80 1    
    19    9   10 ar   
    20    9   14 ar   
    21   10   11 ar   
    22   10   81 1    
    23   11   12 ar   
    24   11   71 1    
    25   12   13 ar   
    26   12   82 1    
    27   13   14 ar   
    28   13   15 1    
    29   14   83 1    
    30   15   16 1    
    31   15   84 1    
    32   15   85 1    
    33   16   17 1    
    34   17   18 1    
    35   17   86 1    
    36   17   87 1    
    37   18   19 1    
    38   18   37 1    
    39   18   88 1    
    40   19   20 am   BACKBONE|DICT|INTERRES
    41   19   89 1    
    42   20   21 2    
    43   20   22 1    
    44   22   23 1    
    45   22   24 1    
    46   22   90 1    
    47   23   91 1    
    48   23   92 1    
    49   23   93 1    
    50   24   25 am   BACKBONE|DICT|INTERRES
    51   24   94 1    
    52   25   26 2    
    53   25   27 1    
    54   27   28 1    
    55   27   29 1    
    56   27   95 1    
    57   28   96 1    
    58   28   97 1    
    59   28   98 1    
    60   29   30 am   BACKBONE|DICT|INTERRES
    61   29   99 1    
    62   30   31 2    
    63   30   32 1    
    64   32   33 1    
    65   32   34 1    
    66   32  100 1    
    67   33  101 1    
    68   33  102 1    
    69   33  103 1    
    70   34   35 am   BACKBONE|DICT|INTERRES
    71   34  104 1    
    72   35   36 2    
    73   37   38 2    
    74   37   39 am   BACKBONE|DICT|INTERRES
    75   39   40 1    
    76   39  105 1    
    77   40   41 1    
    78   40   42 1    
    79   40  106 1    
    80   41  107 1    
    81   41  108 1    
    82   41  109 1    
    83   42   43 2    
    84   42   44 am   BACKBONE|DICT|INTERRES
    85   44   45 1    
    86   44  110 1    
    87   45   46 1    
    88   45   47 1    
    89   45  111 1    
    90   46  112 1    
    91   46  113 1    
    92   46  114 1    
    93   47   48 2    
    94   47   49 am   BACKBONE|DICT|INTERRES
    95   49   50 1    
    96   49  115 1    
    97   50   51 1    
    98   50   52 1    
    99   50  116 1    
   100   51  117 1    
   101   51  118 1    
   102   51  119 1    
   103   52   53 2    
   104   52   54 am   BACKBONE|DICT|INTERRES
   105   54   55 1    
   106   54  120 1    
   107   55   56 1    
   108   55   57 1    
   109   55  121 1    
   110   56  122 1    
   111   56  123 1    
   112   56  124 1    
   113   57   58 2    
   114   57   59 am   BACKBONE|DICT|INTERRES
   115   59   60 1    
   116   59  125 1    
   117   60   61 1    
   118   60   62 1    
   119   60  126 1    
   120   61  127 1    
   121   61  128 1    
   122   61  129 1    
   123   62   63 2    
   124   62   64 am   BACKBONE|DICT|INTERRES
   125   64   65 1    
   126   64  130 1    
   127   65   66 1    
   128   65   69 1    
   129   65  131 1    
   130   66   67 am   BACKBONE|DICT|INTERRES
   131   66   68 2    
   132   67  132 1    
   133   67  133 1    
   134   69   70 1    
   135   69  134 1    
   136   69  135 1    
   137   70   71 1    
   138   71  136 1    
   139   71  137 1    
@<TRIPOS>SUBSTRUCTURE
     1 UNK         1 GROUP             0       ****    0 ROOT    
