@<TRIPOS>MOLECULE
3R136
137   139    1
SMALL
USER_CHARGES


@<TRIPOS>ATOM
      1 CA         29.2822   27.7865    3.7071 C.3       0 UNK        -0.1979 
      2 C          30.0312   27.1952    2.5154 C.2       0 UNK         0.4864 
      3 O          30.6438   27.9568    1.7753 O.2       0 UNK        -0.5359 
      4 N          30.0259   25.8719    2.2882 N.am      1 UNK        -0.4318 
      5 CA         29.2425   24.8538    2.9918 C.3       1 UNK         0.0824 
      6 C6         29.7496   23.4142    2.7081 C.3       12 UNK        -0.0944 
      7 S7         29.6338   22.8498    0.9704 S.3       12 UNK        -0.2672 
      8 C8         31.3812   22.6783    0.4846 C.3       12 UNK         0.0333 
      9 C9         32.0369   24.0287    0.2400 C.ar      12 UNK        -0.0807 
     10 C10        33.0696   24.4792    1.0657 C.ar      12 UNK        -0.0894 
     11 C11        33.6670   25.7234    0.8397 C.ar      12 UNK        -0.0804 
     12 C12        33.2108   26.5266   -0.2118 C.ar      12 UNK        -0.0824 
     13 C13        32.1833   26.0821   -1.0509 C.ar      12 UNK        -0.0762 
     14 C14        31.6179   24.8225   -0.8302 C.ar      12 UNK        -0.0782 
     15 C15        31.6950   26.9443   -2.2108 C.3       12 UNK         0.0230 
     16 S16        30.3009   28.0289   -1.7501 S.3       12 UNK        -0.2608 
     17 C17        29.0581   26.8038   -1.2163 C.3       12 UNK        -0.0989 
     18 CA         27.5991   27.3127   -1.0916 C.3       5 UNK         0.0716 
     19 N          26.7038   26.1656   -0.9528 N.am      5 UNK        -0.4135 
     20 C          26.1564   25.4964   -1.9711 C.2       4 UNK         0.5031 
     21 O          26.2228   25.8839   -3.1393 O.2       4 UNK        -0.5229 
     22 CA         25.4473   24.1599   -1.6893 C.3       4 UNK         0.0329 
     23 CB         26.2001   22.9994   -2.3716 C.3       4 UNK        -0.2001 
     24 N          25.2560   23.8354   -0.2685 N.am      4 UNK        -0.4303 
     25 C          24.2343   23.0854    0.1776 C.2       3 UNK         0.5044 
     26 O          23.3123   22.6955   -0.5413 O.2       3 UNK        -0.5152 
     27 CA         24.2306   22.6541    1.6575 C.3       3 UNK         0.0319 
     28 CB         24.8205   21.2412    1.7993 C.3       3 UNK        -0.2001 
     29 N          24.9560   23.5594    2.5451 N.am      3 UNK        -0.4354 
     30 C          24.5719   24.8045    2.8528 C.2       2 UNK         0.4964 
     31 O          23.5068   25.3003    2.4832 O.2       2 UNK        -0.5047 
     32 CA         25.5338   25.6482    3.7120 C.3       2 UNK         0.0288 
     33 CB         25.0031   25.7675    5.1505 C.3       2 UNK        -0.2113 
     34 N          26.9329   25.1953    3.7594 N.am      2 UNK        -0.4145 
     35 C          27.7392   25.0396    2.6986 C.2       1 UNK         0.5006 
     36 O          27.3421   25.0633    1.5319 O.2       1 UNK        -0.5103 
     37 C          27.3760   28.2698    0.0972 C.2       5 UNK         0.5055 
     38 O          26.6234   27.9558    1.0235 O.2       5 UNK        -0.5220 
     39 N          28.0243   29.4353    0.0425 N.am      6 UNK        -0.4450 
     40 CA         27.9949   30.4734    1.0678 C.3       6 UNK         0.0367 
     41 CB         26.6892   31.2903    0.9716 C.3       6 UNK        -0.1929 
     42 C          29.2597   31.3316    0.9337 C.2       6 UNK         0.5070 
     43 O          29.1652   32.5467    0.7494 O.2       6 UNK        -0.5237 
     44 N          30.4290   30.6801    0.9811 N.am      7 UNK        -0.4739 
     45 CA         31.7373   31.3334    0.9343 C.3       7 UNK         0.0276 
     46 CB         32.8227   30.2688    0.7085 C.3       7 UNK        -0.1927 
     47 C          32.0159   32.1197    2.2250 C.2       7 UNK         0.5013 
     48 O          31.5982   31.6936    3.3056 O.2       7 UNK        -0.5193 
     49 N          32.7646   33.2246    2.0965 N.am      8 UNK        -0.4253 
     50 CA         33.1149   34.1536    3.1815 C.3       8 UNK         0.0242 
     51 CB         33.8973   35.3402    2.5949 C.3       8 UNK        -0.2000 
     52 C          33.8936   33.5244    4.3532 C.2       8 UNK         0.4948 
     53 O          33.8685   34.0722    5.4557 O.2       8 UNK        -0.5275 
     54 N          34.5465   32.3811    4.1047 N.am      9 UNK        -0.4246 
     55 CA         35.2029   31.5490    5.1129 C.3       9 UNK         0.0261 
     56 CB         36.1112   30.5325    4.4011 C.3       9 UNK        -0.1959 
     57 C          34.2246   30.8258    6.0616 C.2       9 UNK         0.5033 
     58 O          34.6681   30.3823    7.1218 O.2       9 UNK        -0.5390 
     59 N          32.9397   30.7092    5.6768 N.am      10 UNK        -0.4215 
     60 CA         31.8541   30.0261    6.3954 C.3       10 UNK         0.0240 
     61 CB         31.4748   30.8000    7.6760 C.3       10 UNK        -0.1982 
     62 C          32.1788   28.5421    6.6547 C.2       10 UNK         0.4970 
     63 O          32.1669   28.0931    7.8026 O.2       10 UNK        -0.4916 
     64 N          32.5179   27.8372    5.5684 N.am      11 UNK        -0.4279 
     65 CA         33.0228   26.4569    5.5419 C.3       11 UNK         0.1003 
     66 C          32.0977   25.4250    6.2452 C.2       11 UNK         0.5709 
     67 N          32.6693   24.4290    6.9082 N.am      11 UNK        -0.7358 
     68 O          30.8738   25.4909    6.1508 O.2       11 UNK        -0.4999 
     69 C69        33.3243   25.9957    4.0923 C.3       12 UNK        -0.0954 
     70 S70        34.2819   27.2040    3.1151 S.3       12 UNK        -0.2268 
     71 C71        34.8271   26.1823    1.7133 C.3       12 UNK         0.0203 
     72 H72        29.4468   27.2141    4.6182 H         1 UNK         0.0888 
     73 H73        29.6277   28.8025    3.8975 H         1 UNK         0.0888 
     74 H74        28.2131   27.8360    3.5028 H         1 UNK         0.0888 
     75 H75        30.5439   25.5273    1.4910 H         1 UNK         0.3017 
     76 H76        29.3941   25.0147    4.0589 H         1 UNK         0.0873 
     77 H77        29.1949   22.7021    3.3216 H         1 UNK         0.0745 
     78 H78        30.7852   23.3292    3.0413 H         1 UNK         0.0745 
     79 H79        31.4324   22.0900   -0.4327 H         1 UNK         0.0705 
     80 H80        31.9181   22.1066    1.2432 H         1 UNK         0.0705 
     81 H81        33.4148   23.8594    1.8819 H         1 UNK         0.1334 
     82 H82        33.6630   27.4936   -0.3816 H         1 UNK         0.1417 
     83 H83        30.8328   24.4616   -1.4802 H         1 UNK         0.1562 
     84 H84        31.3965   26.3121   -3.0485 H         1 UNK         0.0748 
     85 H85        32.5127   27.5653   -2.5794 H         1 UNK         0.0748 
     86 H86        29.3772   26.3601   -0.2747 H         1 UNK         0.0940 
     87 H87        29.0862   25.9962   -1.9492 H         1 UNK         0.0940 
     88 H88        27.3350   27.8676   -1.9944 H         1 UNK         0.0703 
     89 H89        26.6222   25.8319    0.0047 H         1 UNK         0.3081 
     90 H90        24.4685   24.2562   -2.1643 H         1 UNK         0.0719 
     91 H91        26.3569   23.1965   -3.4331 H         1 UNK         0.0809 
     92 H92        27.1802   22.8402   -1.9197 H         1 UNK         0.0809 
     93 H93        25.6429   22.0652   -2.3004 H         1 UNK         0.0809 
     94 H94        25.9832   24.1184    0.3815 H         1 UNK         0.2990 
     95 H95        23.1896   22.6236    1.9866 H         1 UNK         0.0690 
     96 H96        24.7503   20.8818    2.8262 H         1 UNK         0.0788 
     97 H97        25.8698   21.2103    1.5017 H         1 UNK         0.0788 
     98 H98        24.2831   20.5288    1.1716 H         1 UNK         0.0788 
     99 H99        25.8484   23.2396    2.8911 H         1 UNK         0.2993 
    100 H100       25.5409   26.6466    3.2685 H         1 UNK         0.0949 
    101 H101       25.0102   24.8046    5.6631 H         1 UNK         0.0767 
    102 H102       25.5980   26.4674    5.7378 H         1 UNK         0.0767 
    103 H103       23.9756   26.1345    5.1608 H         1 UNK         0.0767 
    104 H104       27.3338   25.1199    4.6836 H         1 UNK         0.3013 
    105 H105       28.6776   29.5865   -0.7171 H         1 UNK         0.3121 
    106 H106       28.0368   30.0033    2.0522 H         1 UNK         0.0774 
    107 H107       26.6644   32.0769    1.7267 H         1 UNK         0.0815 
    108 H108       26.5853   31.7674   -0.0035 H         1 UNK         0.0815 
    109 H109       25.8126   30.6630    1.1330 H         1 UNK         0.0815 
    110 H110       30.4375   29.6780    1.1744 H         1 UNK         0.2987 
    111 H111       31.7422   32.0248    0.0888 H         1 UNK         0.0949 
    112 H112       32.6385   29.7110   -0.2096 H         1 UNK         0.0806 
    113 H113       33.8110   30.7212    0.6214 H         1 UNK         0.0806 
    114 H114       32.8609   29.5516    1.5298 H         1 UNK         0.0806 
    115 H115       33.0811   33.4839    1.1726 H         1 UNK         0.3010 
    116 H116       32.1777   34.5330    3.5944 H         1 UNK         0.0829 
    117 H117       33.3142   35.8678    1.8398 H         1 UNK         0.0813 
    118 H118       34.1476   36.0656    3.3706 H         1 UNK         0.0813 
    119 H119       34.8332   35.0194    2.1356 H         1 UNK         0.0813 
    120 H120       34.5226   32.0193    3.1628 H         1 UNK         0.3038 
    121 H121       35.8310   32.1960    5.7291 H         1 UNK         0.0769 
    122 H122       36.6236   29.8925    5.1209 H         1 UNK         0.0811 
    123 H123       36.8795   31.0315    3.8103 H         1 UNK         0.0811 
    124 H124       35.5440   29.8825    3.7345 H         1 UNK         0.0811 
    125 H125       32.6628   31.1183    4.7865 H         1 UNK         0.3204 
    126 H126       30.9870   30.0437    5.7332 H         1 UNK         0.0748 
    127 H127       30.6104   30.3475    8.1634 H         1 UNK         0.0771 
    128 H128       32.2888   30.8105    8.4016 H         1 UNK         0.0771 
    129 H129       31.2153   31.8343    7.4497 H         1 UNK         0.0771 
    130 H130       32.5157   28.3020    4.6728 H         1 UNK         0.2980 
    131 H131       33.9681   26.4785    6.0873 H         1 UNK         0.0545 
    132 H132       32.0836   23.7421    7.3562 H         1 UNK         0.3459 
    133 H133       33.6721   24.3552    6.9807 H         1 UNK         0.3459 
    134 H134       33.8756   25.0540    4.1112 H         1 UNK         0.0616 
    135 H135       32.3982   25.7955    3.5560 H         1 UNK         0.0616 
    136 H136       35.3858   25.3233    2.0879 H         1 UNK         0.0634 
    137 H137       35.5303   26.7621    1.1138 H         1 UNK         0.0634 
@<TRIPOS>BOND
     1    1    2 1    
     2    1   72 1    
     3    1   73 1    
     4    1   74 1    
     5    2    3 2    
     6    2    4 am   BACKBONE|DICT|INTERRES
     7    4    5 1    
     8    4   75 1    
     9    5    6 1    
    10    5   35 1    
    11    5   76 1    
    12    6    7 1    
    13    6   77 1    
    14    6   78 1    
    15    7    8 1    
    16    8    9 1    
    17    8   79 1    
    18    8   80 1    
    19    9   10 ar   
    20    9   14 ar   
    21   10   11 ar   
    22   10   81 1    
    23   11   12 ar   
    24   11   71 1    
    25   12   13 ar   
    26   12   82 1    
    27   13   14 ar   
    28   13   15 1    
    29   14   83 1    
    30   15   16 1    
    31   15   84 1    
    32   15   85 1    
    33   16   17 1    
    34   17   18 1    
    35   17   86 1    
    36   17   87 1    
    37   18   19 1    
    38   18   37 1    
    39   18   88 1    
    40   19   20 am   BACKBONE|DICT|INTERRES
    41   19   89 1    
    42   20   21 2    
    43   20   22 1    
    44   22   23 1    
    45   22   24 1    
    46   22   90 1    
    47   23   91 1    
    48   23   92 1    
    49   23   93 1    
    50   24   25 am   BACKBONE|DICT|INTERRES
    51   24   94 1    
    52   25   26 2    
    53   25   27 1    
    54   27   28 1    
    55   27   29 1    
    56   27   95 1    
    57   28   96 1    
    58   28   97 1    
    59   28   98 1    
    60   29   30 am   BACKBONE|DICT|INTERRES
    61   29   99 1    
    62   30   31 2    
    63   30   32 1    
    64   32   33 1    
    65   32   34 1    
    66   32  100 1    
    67   33  101 1    
    68   33  102 1    
    69   33  103 1    
    70   34   35 am   BACKBONE|DICT|INTERRES
    71   34  104 1    
    72   35   36 2    
    73   37   38 2    
    74   37   39 am   BACKBONE|DICT|INTERRES
    75   39   40 1    
    76   39  105 1    
    77   40   41 1    
    78   40   42 1    
    79   40  106 1    
    80   41  107 1    
    81   41  108 1    
    82   41  109 1    
    83   42   43 2    
    84   42   44 am   BACKBONE|DICT|INTERRES
    85   44   45 1    
    86   44  110 1    
    87   45   46 1    
    88   45   47 1    
    89   45  111 1    
    90   46  112 1    
    91   46  113 1    
    92   46  114 1    
    93   47   48 2    
    94   47   49 am   BACKBONE|DICT|INTERRES
    95   49   50 1    
    96   49  115 1    
    97   50   51 1    
    98   50   52 1    
    99   50  116 1    
   100   51  117 1    
   101   51  118 1    
   102   51  119 1    
   103   52   53 2    
   104   52   54 am   BACKBONE|DICT|INTERRES
   105   54   55 1    
   106   54  120 1    
   107   55   56 1    
   108   55   57 1    
   109   55  121 1    
   110   56  122 1    
   111   56  123 1    
   112   56  124 1    
   113   57   58 2    
   114   57   59 am   BACKBONE|DICT|INTERRES
   115   59   60 1    
   116   59  125 1    
   117   60   61 1    
   118   60   62 1    
   119   60  126 1    
   120   61  127 1    
   121   61  128 1    
   122   61  129 1    
   123   62   63 2    
   124   62   64 am   BACKBONE|DICT|INTERRES
   125   64   65 1    
   126   64  130 1    
   127   65   66 1    
   128   65   69 1    
   129   65  131 1    
   130   66   67 am   BACKBONE|DICT|INTERRES
   131   66   68 2    
   132   67  132 1    
   133   67  133 1    
   134   69   70 1    
   135   69  134 1    
   136   69  135 1    
   137   70   71 1    
   138   71  136 1    
   139   71  137 1    
@<TRIPOS>SUBSTRUCTURE
     1 UNK         1 GROUP             0       ****    0 ROOT    
