@<TRIPOS>MOLECULE
3R136
137   139    1
SMALL
USER_CHARGES


@<TRIPOS>ATOM
      1 CA         30.0740   24.8456   -2.6785 C.3       0 UNK        -0.1979 
      2 C          29.5338   23.6114   -1.9710 C.2       0 UNK         0.4864 
      3 O          29.8591   22.4906   -2.3621 O.2       0 UNK        -0.5359 
      4 N          28.6915   23.8210   -0.9511 N.am      1 UNK        -0.4318 
      5 CA         28.0236   22.8270   -0.0953 C.3       1 UNK         0.0824 
      6 C6         28.9712   21.8086    0.5957 C.3       12 UNK        -0.0944 
      7 S7         30.3215   22.6407    1.4977 S.3       12 UNK        -0.2672 
      8 C8         29.6060   22.8457    3.1635 C.3       12 UNK         0.0333 
      9 C9         30.0377   24.1577    3.8114 C.ar      12 UNK        -0.0807 
     10 C10        31.3872   24.5253    3.8435 C.ar      12 UNK        -0.0894 
     11 C11        31.7883   25.7418    4.4020 C.ar      12 UNK        -0.0804 
     12 C12        30.8184   26.5937    4.9419 C.ar      12 UNK        -0.0824 
     13 C13        29.4692   26.2246    4.9561 C.ar      12 UNK        -0.0762 
     14 C14        29.0861   25.0037    4.3909 C.ar      12 UNK        -0.0782 
     15 C15        28.4352   27.1419    5.6033 C.3       12 UNK         0.0230 
     16 S16        27.1161   27.6721    4.4590 S.3       12 UNK        -0.2608 
     17 C17        28.0770   28.3452    3.0656 C.3       12 UNK        -0.0989 
     18 CA         27.9644   27.4243    1.8282 C.3       5 UNK         0.0716 
     19 N          26.6402   27.5196    1.2061 N.am      5 UNK        -0.4135 
     20 C          26.1954   26.7091    0.2413 C.2       4 UNK         0.5031 
     21 O          26.8696   25.8119   -0.2688 O.2       4 UNK        -0.5229 
     22 CA         24.7538   26.9104   -0.2312 C.3       4 UNK         0.0329 
     23 CB         24.7028   27.7790   -1.4998 C.3       4 UNK        -0.2001 
     24 N          24.2023   25.5870   -0.5020 N.am      4 UNK        -0.4303 
     25 C          22.9118   25.2396   -0.4614 C.2       3 UNK         0.5044 
     26 O          22.0027   26.0422   -0.2421 O.2       3 UNK        -0.5152 
     27 CA         22.5746   23.7434   -0.6546 C.3       3 UNK         0.0319 
     28 CB         21.2479   23.5320   -1.4158 C.3       3 UNK        -0.2001 
     29 N          23.6583   22.9396   -1.2433 N.am      3 UNK        -0.4354 
     30 C          24.1697   23.0354   -2.4798 C.2       2 UNK         0.4964 
     31 O          23.7895   23.8485   -3.3235 O.2       2 UNK        -0.5047 
     32 CA         25.3448   22.0922   -2.7938 C.3       2 UNK         0.0288 
     33 CB         25.7016   22.0652   -4.2923 C.3       2 UNK        -0.2113 
     34 N          26.5262   22.5035   -2.0364 N.am      2 UNK        -0.4145 
     35 C          26.8074   22.1573   -0.7722 C.2       1 UNK         0.5006 
     36 O          26.1005   21.3872   -0.1189 O.2       1 UNK        -0.5103 
     37 C          29.1018   27.7271    0.8387 C.2       5 UNK         0.5055 
     38 O          28.9725   28.6223   -0.0004 O.2       5 UNK        -0.5220 
     39 N          30.2257   27.0197    1.0092 N.am      6 UNK        -0.4450 
     40 CA         31.4734   27.2237    0.2729 C.3       6 UNK         0.0367 
     41 CB         32.2925   25.9200    0.3208 C.3       6 UNK        -0.1929 
     42 C          32.2489   28.4357    0.8284 C.2       6 UNK         0.5070 
     43 O          33.3447   28.2688    1.3634 O.2       6 UNK        -0.5237 
     44 N          31.6429   29.6262    0.7011 N.am      7 UNK        -0.4739 
     45 CA         32.0991   30.9328    1.1911 C.3       7 UNK         0.0276 
     46 CB         33.4115   31.3611    0.4994 C.3       7 UNK        -0.1927 
     47 C          32.2058   30.9621    2.7259 C.2       7 UNK         0.5013 
     48 O          33.3107   30.9345    3.2700 O.2       7 UNK        -0.5193 
     49 N          31.0493   31.0347    3.4033 N.am      8 UNK        -0.4253 
     50 CA         30.9134   31.0439    4.8694 C.3       8 UNK         0.0242 
     51 CB         29.4355   31.2242    5.2521 C.3       8 UNK        -0.2000 
     52 C          31.7748   32.0940    5.5980 C.2       8 UNK         0.4948 
     53 O          32.2721   31.8126    6.6885 O.2       8 UNK        -0.5275 
     54 N          31.9702   33.2607    4.9666 N.am      9 UNK        -0.4246 
     55 CA         32.8379   34.3394    5.4477 C.3       9 UNK         0.0261 
     56 CB         32.6106   35.5937    4.5883 C.3       9 UNK        -0.1959 
     57 C          34.3340   33.9705    5.4749 C.2       9 UNK         0.5033 
     58 O          35.0624   34.5038    6.3131 O.2       9 UNK        -0.5390 
     59 N          34.7656   33.0752    4.5751 N.am      10 UNK        -0.4215 
     60 CA         36.1155   32.5092    4.5559 C.3       10 UNK         0.0240 
     61 CB         36.5202   32.1820    3.1085 C.3       10 UNK        -0.1982 
     62 C          36.1989   31.2566    5.4422 C.2       10 UNK         0.4970 
     63 O          37.2223   31.0522    6.0960 O.2       10 UNK        -0.4916 
     64 N          35.1269   30.4514    5.4491 N.am      11 UNK        -0.4279 
     65 CA         34.9639   29.2527    6.2835 C.3       11 UNK         0.1003 
     66 C          35.0266   29.5407    7.8098 C.2       11 UNK         0.5709 
     67 N          34.3332   30.5634    8.2959 N.am      11 UNK        -0.7358 
     68 O          35.7128   28.8411    8.5511 O.2       11 UNK        -0.4999 
     69 C69        33.6690   28.4791    5.9098 C.3       12 UNK        -0.0954 
     70 S70        33.8837   26.6706    6.0194 S.3       12 UNK        -0.2268 
     71 C71        33.2679   26.1197    4.3923 C.3       12 UNK         0.0203 
     72 H72        29.7719   24.8419   -3.7254 H         1 UNK         0.0888 
     73 H73        29.7104   25.7670   -2.2229 H         1 UNK         0.0888 
     74 H74        31.1629   24.8545   -2.6376 H         1 UNK         0.0888 
     75 H75        28.3840   24.7699   -0.7508 H         1 UNK         0.3017 
     76 H76        27.5819   23.4194    0.7073 H         1 UNK         0.0873 
     77 H77        29.4135   21.1342   -0.1388 H         1 UNK         0.0745 
     78 H78        28.4209   21.1724    1.2914 H         1 UNK         0.0745 
     79 H79        28.5179   22.8003    3.0985 H         1 UNK         0.0705 
     80 H80        29.9164   22.0107    3.7928 H         1 UNK         0.0705 
     81 H81        32.1274   23.8637    3.4142 H         1 UNK         0.1334 
     82 H82        31.1163   27.5381    5.3721 H         1 UNK         0.1417 
     83 H83        28.0417   24.7215    4.3960 H         1 UNK         0.1562 
     84 H84        28.9121   28.0313    6.0184 H         1 UNK         0.0748 
     85 H85        27.9795   26.6209    6.4464 H         1 UNK         0.0748 
     86 H86        29.1152   28.4697    3.3801 H         1 UNK         0.0940 
     87 H87        27.7163   29.3496    2.8360 H         1 UNK         0.0940 
     88 H88        28.0876   26.3873    2.1476 H         1 UNK         0.0703 
     89 H89        26.0324   28.2429    1.5607 H         1 UNK         0.3081 
     90 H90        24.1796   27.3867    0.5665 H         1 UNK         0.0719 
     91 H91        25.1347   28.7639   -1.3178 H         1 UNK         0.0809 
     92 H92        25.2591   27.3233   -2.3202 H         1 UNK         0.0809 
     93 H93        23.6770   27.9310   -1.8358 H         1 UNK         0.0809 
     94 H94        24.9014   24.8748   -0.6661 H         1 UNK         0.2990 
     95 H95        22.4335   23.3477    0.3522 H         1 UNK         0.0690 
     96 H96        21.0164   22.4725   -1.5243 H         1 UNK         0.0788 
     97 H97        21.2763   23.9740   -2.4122 H         1 UNK         0.0788 
     98 H98        20.4132   23.9902   -0.8838 H         1 UNK         0.0788 
     99 H99        24.0846   22.2617   -0.6211 H         1 UNK         0.2993 
    100 H100       25.0520   21.0813   -2.5007 H         1 UNK         0.0949 
    101 H101       26.0214   23.0440   -4.6527 H         1 UNK         0.0767 
    102 H102       26.5050   21.3563   -4.4940 H         1 UNK         0.0767 
    103 H103       24.8429   21.7603   -4.8920 H         1 UNK         0.0767 
    104 H104       27.1420   23.1651   -2.4859 H         1 UNK         0.3013 
    105 H105       30.2630   26.3383    1.7553 H         1 UNK         0.3121 
    106 H106       31.2405   27.4328   -0.7736 H         1 UNK         0.0774 
    107 H107       32.5811   25.6596    1.3395 H         1 UNK         0.0815 
    108 H108       31.7318   25.0802   -0.0891 H         1 UNK         0.0815 
    109 H109       33.2090   26.0143   -0.2628 H         1 UNK         0.0815 
    110 H110       30.7206   29.6130    0.2747 H         1 UNK         0.2987 
    111 H111       31.3346   31.6588    0.9092 H         1 UNK         0.0949 
    112 H112       33.2980   31.3872   -0.5842 H         1 UNK         0.0806 
    113 H113       33.7112   32.3600    0.8188 H         1 UNK         0.0806 
    114 H114       34.2380   30.6890    0.7323 H         1 UNK         0.0806 
    115 H115       30.1899   31.0687    2.8747 H         1 UNK         0.3010 
    116 H116       31.2351   30.0643    5.2243 H         1 UNK         0.0829 
    117 H117       29.0304   32.1628    4.8717 H         1 UNK         0.0813 
    118 H118       29.3115   31.2330    6.3362 H         1 UNK         0.0813 
    119 H119       28.8175   30.4135    4.8712 H         1 UNK         0.0813 
    120 H120       31.5126   33.4053    4.0784 H         1 UNK         0.3038 
    121 H121       32.5416   34.5700    6.4734 H         1 UNK         0.0769 
    122 H122       31.5717   35.9215    4.6298 H         1 UNK         0.0811 
    123 H123       32.8684   35.4204    3.5427 H         1 UNK         0.0811 
    124 H124       33.2239   36.4241    4.9412 H         1 UNK         0.0811 
    125 H125       34.0904   32.6330    3.9604 H         1 UNK         0.3204 
    126 H126       36.8246   33.2440    4.9436 H         1 UNK         0.0748 
    127 H127       35.8733   31.4246    2.6643 H         1 UNK         0.0771 
    128 H128       36.4802   33.0688    2.4759 H         1 UNK         0.0771 
    129 H129       37.5412   31.8004    3.0681 H         1 UNK         0.0771 
    130 H130       34.3620   30.6637    4.8162 H         1 UNK         0.2980 
    131 H131       35.8223   28.6217    6.0445 H         1 UNK         0.0545 
    132 H132       34.3718   30.7636    9.2820 H         1 UNK         0.3459 
    133 H133       33.7121   31.0975    7.6934 H         1 UNK         0.3459 
    134 H134       33.3668   28.7261    4.8918 H         1 UNK         0.0616 
    135 H135       32.8274   28.7743    6.5389 H         1 UNK         0.0616 
    136 H136       33.8698   25.2600    4.0943 H         1 UNK         0.0634 
    137 H137       33.4460   26.8814    3.6340 H         1 UNK         0.0634 
@<TRIPOS>BOND
     1    1    2 1    
     2    1   72 1    
     3    1   73 1    
     4    1   74 1    
     5    2    3 2    
     6    2    4 am   BACKBONE|DICT|INTERRES
     7    4    5 1    
     8    4   75 1    
     9    5    6 1    
    10    5   35 1    
    11    5   76 1    
    12    6    7 1    
    13    6   77 1    
    14    6   78 1    
    15    7    8 1    
    16    8    9 1    
    17    8   79 1    
    18    8   80 1    
    19    9   10 ar   
    20    9   14 ar   
    21   10   11 ar   
    22   10   81 1    
    23   11   12 ar   
    24   11   71 1    
    25   12   13 ar   
    26   12   82 1    
    27   13   14 ar   
    28   13   15 1    
    29   14   83 1    
    30   15   16 1    
    31   15   84 1    
    32   15   85 1    
    33   16   17 1    
    34   17   18 1    
    35   17   86 1    
    36   17   87 1    
    37   18   19 1    
    38   18   37 1    
    39   18   88 1    
    40   19   20 am   BACKBONE|DICT|INTERRES
    41   19   89 1    
    42   20   21 2    
    43   20   22 1    
    44   22   23 1    
    45   22   24 1    
    46   22   90 1    
    47   23   91 1    
    48   23   92 1    
    49   23   93 1    
    50   24   25 am   BACKBONE|DICT|INTERRES
    51   24   94 1    
    52   25   26 2    
    53   25   27 1    
    54   27   28 1    
    55   27   29 1    
    56   27   95 1    
    57   28   96 1    
    58   28   97 1    
    59   28   98 1    
    60   29   30 am   BACKBONE|DICT|INTERRES
    61   29   99 1    
    62   30   31 2    
    63   30   32 1    
    64   32   33 1    
    65   32   34 1    
    66   32  100 1    
    67   33  101 1    
    68   33  102 1    
    69   33  103 1    
    70   34   35 am   BACKBONE|DICT|INTERRES
    71   34  104 1    
    72   35   36 2    
    73   37   38 2    
    74   37   39 am   BACKBONE|DICT|INTERRES
    75   39   40 1    
    76   39  105 1    
    77   40   41 1    
    78   40   42 1    
    79   40  106 1    
    80   41  107 1    
    81   41  108 1    
    82   41  109 1    
    83   42   43 2    
    84   42   44 am   BACKBONE|DICT|INTERRES
    85   44   45 1    
    86   44  110 1    
    87   45   46 1    
    88   45   47 1    
    89   45  111 1    
    90   46  112 1    
    91   46  113 1    
    92   46  114 1    
    93   47   48 2    
    94   47   49 am   BACKBONE|DICT|INTERRES
    95   49   50 1    
    96   49  115 1    
    97   50   51 1    
    98   50   52 1    
    99   50  116 1    
   100   51  117 1    
   101   51  118 1    
   102   51  119 1    
   103   52   53 2    
   104   52   54 am   BACKBONE|DICT|INTERRES
   105   54   55 1    
   106   54  120 1    
   107   55   56 1    
   108   55   57 1    
   109   55  121 1    
   110   56  122 1    
   111   56  123 1    
   112   56  124 1    
   113   57   58 2    
   114   57   59 am   BACKBONE|DICT|INTERRES
   115   59   60 1    
   116   59  125 1    
   117   60   61 1    
   118   60   62 1    
   119   60  126 1    
   120   61  127 1    
   121   61  128 1    
   122   61  129 1    
   123   62   63 2    
   124   62   64 am   BACKBONE|DICT|INTERRES
   125   64   65 1    
   126   64  130 1    
   127   65   66 1    
   128   65   69 1    
   129   65  131 1    
   130   66   67 am   BACKBONE|DICT|INTERRES
   131   66   68 2    
   132   67  132 1    
   133   67  133 1    
   134   69   70 1    
   135   69  134 1    
   136   69  135 1    
   137   70   71 1    
   138   71  136 1    
   139   71  137 1    
@<TRIPOS>SUBSTRUCTURE
     1 UNK         1 GROUP             0       ****    0 ROOT    
