@<TRIPOS>MOLECULE
3R136
137   139    1
SMALL
USER_CHARGES


@<TRIPOS>ATOM
      1 CA         31.9783   28.9006    1.9777 C.3       0 UNK        -0.1979 
      2 C          31.3024   28.1101    3.0846 C.2       0 UNK         0.4864 
      3 O          31.8586   27.9974    4.1807 O.2       0 UNK        -0.5359 
      4 N          30.1126   27.5678    2.8055 N.am      1 UNK        -0.4318 
      5 CA         29.2977   26.8138    3.7620 C.3       1 UNK         0.0824 
      6 C6         29.5996   25.2907    3.7208 C.3       12 UNK        -0.0944 
      7 S7         28.9815   24.4225    2.2350 S.3       12 UNK        -0.2672 
      8 C8         30.0760   22.9660    2.2049 C.3       12 UNK         0.0333 
      9 C9         31.3790   23.2818    1.4894 C.ar      12 UNK        -0.0807 
     10 C10        32.5988   23.3044    2.1713 C.ar      12 UNK        -0.0894 
     11 C11        33.7805   23.6327    1.4950 C.ar      12 UNK        -0.0804 
     12 C12        33.7308   23.9602    0.1345 C.ar      12 UNK        -0.0824 
     13 C13        32.5114   23.9495   -0.5483 C.ar      12 UNK        -0.0762 
     14 C14        31.3525   23.5724    0.1263 C.ar      12 UNK        -0.0782 
     15 C15        32.4160   24.3720   -2.0049 C.3       12 UNK         0.0230 
     16 S16        32.4739   26.1832   -2.2136 S.3       12 UNK        -0.2608 
     17 C17        31.2349   26.8421   -1.0394 C.3       12 UNK        -0.0989 
     18 CA         29.8025   26.9054   -1.6318 C.3       5 UNK         0.0716 
     19 N          29.0301   25.6835   -1.3935 N.am      5 UNK        -0.4135 
     20 C          27.9887   25.3124   -2.1523 C.2       4 UNK         0.5031 
     21 O          27.7208   25.8224   -3.2410 O.2       4 UNK        -0.5229 
     22 CA         27.0477   24.2486   -1.5786 C.3       4 UNK         0.0329 
     23 CB         27.7245   22.8788   -1.3910 C.3       4 UNK        -0.2001 
     24 N          26.4459   24.7039   -0.3220 N.am      4 UNK        -0.4303 
     25 C          25.1867   24.4380    0.0485 C.2       3 UNK         0.5044 
     26 O          24.3911   23.8017   -0.6446 O.2       3 UNK        -0.5152 
     27 CA         24.7239   24.9310    1.4314 C.3       3 UNK         0.0319 
     28 CB         24.8324   23.7929    2.4594 C.3       3 UNK        -0.2001 
     29 N          25.4435   26.0962    1.9489 N.am      3 UNK        -0.4354 
     30 C          25.3408   27.3522    1.4970 C.2       2 UNK         0.4964 
     31 O          24.6771   27.6648    0.5087 O.2       2 UNK        -0.5047 
     32 CA         26.0870   28.4543    2.2785 C.3       2 UNK         0.0288 
     33 CB         25.2239   29.0071    3.4288 C.3       2 UNK        -0.2113 
     34 N          27.4296   28.0811    2.7447 N.am      2 UNK        -0.4145 
     35 C          27.7947   27.1395    3.6298 C.2       1 UNK         0.5006 
     36 O          26.9866   26.4931    4.2992 O.2       1 UNK        -0.5103 
     37 C          28.9698   28.0325   -1.0009 C.2       5 UNK         0.5055 
     38 O          28.8832   28.0894    0.2267 O.2       5 UNK        -0.5220 
     39 N          28.3241   28.8404   -1.8522 N.am      6 UNK        -0.4450 
     40 CA         27.2558   29.7868   -1.5088 C.3       6 UNK         0.0367 
     41 CB         26.6152   30.2977   -2.8106 C.3       6 UNK        -0.1929 
     42 C          27.6582   30.9699   -0.6090 C.2       6 UNK         0.5070 
     43 O          26.7703   31.6621   -0.1088 O.2       6 UNK        -0.5237 
     44 N          28.9643   31.1957   -0.4195 N.am      7 UNK        -0.4739 
     45 CA         29.5069   32.1684    0.5320 C.3       7 UNK         0.0276 
     46 CB         31.0167   32.3237    0.2811 C.3       7 UNK        -0.1927 
     47 C          29.2238   31.7687    1.9939 C.2       7 UNK         0.5013 
     48 O          28.9184   30.6049    2.2690 O.2       7 UNK        -0.5193 
     49 N          29.3392   32.7485    2.9015 N.am      8 UNK        -0.4253 
     50 CA         29.1294   32.5957    4.3452 C.3       8 UNK         0.0242 
     51 CB         29.3274   33.9585    5.0293 C.3       8 UNK        -0.2000 
     52 C          30.0530   31.5387    4.9767 C.2       8 UNK         0.4948 
     53 O          31.1877   31.3764    4.5230 O.2       8 UNK        -0.5275 
     54 N          29.5331   30.8552    6.0066 N.am      9 UNK        -0.4246 
     55 CA         30.1450   29.7155    6.6935 C.3       9 UNK         0.0261 
     56 CB         29.2096   29.2386    7.8180 C.3       9 UNK        -0.1959 
     57 C          31.5617   29.9981    7.2221 C.2       9 UNK         0.5033 
     58 O          31.7103   30.6969    8.2276 O.2       9 UNK        -0.5390 
     59 N          32.5621   29.4472    6.5278 N.am      10 UNK        -0.4215 
     60 CA         33.9848   29.5935    6.8399 C.3       10 UNK         0.0240 
     61 CB         34.5312   30.8785    6.1916 C.3       10 UNK        -0.1982 
     62 C          34.8141   28.3729    6.4121 C.2       10 UNK         0.4970 
     63 O          35.8632   28.1333    7.0114 O.2       10 UNK        -0.4916 
     64 N          34.3550   27.6263    5.3984 N.am      11 UNK        -0.4279 
     65 CA         35.0181   26.4220    4.8790 C.3       11 UNK         0.1003 
     66 C          34.8566   25.1676    5.7875 C.2       11 UNK         0.5709 
     67 N          33.8799   25.1255    6.6869 N.am      11 UNK        -0.7358 
     68 O          35.6414   24.2276    5.6929 O.2       11 UNK        -0.4999 
     69 C69        34.5605   26.1524    3.4216 C.3       12 UNK        -0.0954 
     70 S70        35.8132   25.3093    2.4000 S.3       12 UNK        -0.2268 
     71 C71        35.1105   23.6369    2.2363 C.3       12 UNK         0.0203 
     72 H72        32.4000   29.8208    2.3818 H         1 UNK         0.0888 
     73 H73        32.7811   28.3180    1.5278 H         1 UNK         0.0888 
     74 H74        31.2668   29.1725    1.1995 H         1 UNK         0.0888 
     75 H75        29.7090   27.6910    1.8791 H         1 UNK         0.3017 
     76 H76        29.5504   27.1507    4.7670 H         1 UNK         0.0873 
     77 H77        30.6763   25.1330    3.8038 H         1 UNK         0.0745 
     78 H78        29.1643   24.8030    4.5948 H         1 UNK         0.0745 
     79 H79        30.2552   22.6140    3.2221 H         1 UNK         0.0705 
     80 H80        29.5696   22.1529    1.6830 H         1 UNK         0.0705 
     81 H81        32.6283   23.0729    3.2274 H         1 UNK         0.1334 
     82 H82        34.6360   24.2439   -0.3850 H         1 UNK         0.1417 
     83 H83        30.4163   23.5454   -0.4059 H         1 UNK         0.1562 
     84 H84        31.4967   23.9962   -2.4572 H         1 UNK         0.0748 
     85 H85        33.2357   23.9245   -2.5686 H         1 UNK         0.0748 
     86 H86        31.5884   27.8486   -0.8093 H         1 UNK         0.0940 
     87 H87        31.2609   26.3123   -0.0868 H         1 UNK         0.0940 
     88 H88        29.8821   27.0921   -2.7054 H         1 UNK         0.0703 
     89 H89        29.1547   25.2551   -0.4889 H         1 UNK         0.3081 
     90 H90        26.2622   24.1217   -2.3274 H         1 UNK         0.0719 
     91 H91        28.3162   22.8365   -0.4786 H         1 UNK         0.0809 
     92 H92        26.9774   22.0877   -1.3241 H         1 UNK         0.0809 
     93 H93        28.3771   22.6345   -2.2305 H         1 UNK         0.0809 
     94 H94        27.0181   25.2593    0.2983 H         1 UNK         0.2990 
     95 H95        23.6712   25.2066    1.3397 H         1 UNK         0.0690 
     96 H96        24.2823   22.9108    2.1285 H         1 UNK         0.0788 
     97 H97        24.4188   24.0882    3.4240 H         1 UNK         0.0788 
     98 H98        25.8690   23.4915    2.6175 H         1 UNK         0.0788 
     99 H99        25.9901   25.9586    2.7954 H         1 UNK         0.2993 
    100 H100       26.2505   29.2723    1.5755 H         1 UNK         0.0949 
    101 H101       25.7242   29.8337    3.9336 H         1 UNK         0.0767 
    102 H102       24.2725   29.3848    3.0519 H         1 UNK         0.0767 
    103 H103       24.9967   28.2450    4.1746 H         1 UNK         0.0767 
    104 H104       28.1682   28.5978    2.2751 H         1 UNK         0.3013 
    105 H105       28.4675   28.6892   -2.8410 H         1 UNK         0.3121 
    106 H106       26.4969   29.2259   -0.9602 H         1 UNK         0.0774 
    107 H107       27.3308   30.8479   -3.4227 H         1 UNK         0.0815 
    108 H108       25.7818   30.9700   -2.6009 H         1 UNK         0.0815 
    109 H109       26.2193   29.4764   -3.4085 H         1 UNK         0.0815 
    110 H110       29.6183   30.5561   -0.8436 H         1 UNK         0.2987 
    111 H111       29.0208   33.1288    0.3458 H         1 UNK         0.0949 
    112 H112       31.5522   31.3860    0.4237 H         1 UNK         0.0806 
    113 H113       31.2150   32.6702   -0.7333 H         1 UNK         0.0806 
    114 H114       31.4577   33.0539    0.9607 H         1 UNK         0.0806 
    115 H115       29.6264   33.6638    2.5880 H         1 UNK         0.3010 
    116 H116       28.0938   32.2786    4.4865 H         1 UNK         0.0829 
    117 H117       28.6373   34.7059    4.6374 H         1 UNK         0.0813 
    118 H118       29.1492   33.8881    6.1033 H         1 UNK         0.0813 
    119 H119       30.3431   34.3324    4.8929 H         1 UNK         0.0813 
    120 H120       28.6081   31.1081    6.3219 H         1 UNK         0.3038 
    121 H121       30.2105   28.9098    5.9656 H         1 UNK         0.0769 
    122 H122       29.6388   28.3863    8.3466 H         1 UNK         0.0811 
    123 H123       29.0321   30.0225    8.5555 H         1 UNK         0.0811 
    124 H124       28.2437   28.9203    7.4251 H         1 UNK         0.0811 
    125 H125       32.3202   28.9349    5.6810 H         1 UNK         0.3204 
    126 H126       34.0986   29.6775    7.9230 H         1 UNK         0.0748 
    127 H127       35.5952   31.0027    6.3978 H         1 UNK         0.0771 
    128 H128       34.4036   30.8648    5.1083 H         1 UNK         0.0771 
    129 H129       34.0213   31.7627    6.5747 H         1 UNK         0.0771 
    130 H130       33.4742   27.8546    4.9451 H         1 UNK         0.2980 
    131 H131       36.0870   26.6433    4.8537 H         1 UNK         0.0545 
    132 H132       33.7898   24.3152    7.2789 H         1 UNK         0.3459 
    133 H133       33.2348   25.8930    6.7774 H         1 UNK         0.3459 
    134 H134       34.3745   27.0998    2.9146 H         1 UNK         0.0616 
    135 H135       33.6065   25.6245    3.4000 H         1 UNK         0.0616 
    136 H136       35.0056   23.1931    3.2271 H         1 UNK         0.0634 
    137 H137       35.8211   23.0106    1.6955 H         1 UNK         0.0634 
@<TRIPOS>BOND
     1    1    2 1    
     2    1   72 1    
     3    1   73 1    
     4    1   74 1    
     5    2    3 2    
     6    2    4 am   BACKBONE|DICT|INTERRES
     7    4    5 1    
     8    4   75 1    
     9    5    6 1    
    10    5   35 1    
    11    5   76 1    
    12    6    7 1    
    13    6   77 1    
    14    6   78 1    
    15    7    8 1    
    16    8    9 1    
    17    8   79 1    
    18    8   80 1    
    19    9   10 ar   
    20    9   14 ar   
    21   10   11 ar   
    22   10   81 1    
    23   11   12 ar   
    24   11   71 1    
    25   12   13 ar   
    26   12   82 1    
    27   13   14 ar   
    28   13   15 1    
    29   14   83 1    
    30   15   16 1    
    31   15   84 1    
    32   15   85 1    
    33   16   17 1    
    34   17   18 1    
    35   17   86 1    
    36   17   87 1    
    37   18   19 1    
    38   18   37 1    
    39   18   88 1    
    40   19   20 am   BACKBONE|DICT|INTERRES
    41   19   89 1    
    42   20   21 2    
    43   20   22 1    
    44   22   23 1    
    45   22   24 1    
    46   22   90 1    
    47   23   91 1    
    48   23   92 1    
    49   23   93 1    
    50   24   25 am   BACKBONE|DICT|INTERRES
    51   24   94 1    
    52   25   26 2    
    53   25   27 1    
    54   27   28 1    
    55   27   29 1    
    56   27   95 1    
    57   28   96 1    
    58   28   97 1    
    59   28   98 1    
    60   29   30 am   BACKBONE|DICT|INTERRES
    61   29   99 1    
    62   30   31 2    
    63   30   32 1    
    64   32   33 1    
    65   32   34 1    
    66   32  100 1    
    67   33  101 1    
    68   33  102 1    
    69   33  103 1    
    70   34   35 am   BACKBONE|DICT|INTERRES
    71   34  104 1    
    72   35   36 2    
    73   37   38 2    
    74   37   39 am   BACKBONE|DICT|INTERRES
    75   39   40 1    
    76   39  105 1    
    77   40   41 1    
    78   40   42 1    
    79   40  106 1    
    80   41  107 1    
    81   41  108 1    
    82   41  109 1    
    83   42   43 2    
    84   42   44 am   BACKBONE|DICT|INTERRES
    85   44   45 1    
    86   44  110 1    
    87   45   46 1    
    88   45   47 1    
    89   45  111 1    
    90   46  112 1    
    91   46  113 1    
    92   46  114 1    
    93   47   48 2    
    94   47   49 am   BACKBONE|DICT|INTERRES
    95   49   50 1    
    96   49  115 1    
    97   50   51 1    
    98   50   52 1    
    99   50  116 1    
   100   51  117 1    
   101   51  118 1    
   102   51  119 1    
   103   52   53 2    
   104   52   54 am   BACKBONE|DICT|INTERRES
   105   54   55 1    
   106   54  120 1    
   107   55   56 1    
   108   55   57 1    
   109   55  121 1    
   110   56  122 1    
   111   56  123 1    
   112   56  124 1    
   113   57   58 2    
   114   57   59 am   BACKBONE|DICT|INTERRES
   115   59   60 1    
   116   59  125 1    
   117   60   61 1    
   118   60   62 1    
   119   60  126 1    
   120   61  127 1    
   121   61  128 1    
   122   61  129 1    
   123   62   63 2    
   124   62   64 am   BACKBONE|DICT|INTERRES
   125   64   65 1    
   126   64  130 1    
   127   65   66 1    
   128   65   69 1    
   129   65  131 1    
   130   66   67 am   BACKBONE|DICT|INTERRES
   131   66   68 2    
   132   67  132 1    
   133   67  133 1    
   134   69   70 1    
   135   69  134 1    
   136   69  135 1    
   137   70   71 1    
   138   71  136 1    
   139   71  137 1    
@<TRIPOS>SUBSTRUCTURE
     1 UNK         1 GROUP             0       ****    0 ROOT    
