@<TRIPOS>MOLECULE
3R136
137   139    1
SMALL
USER_CHARGES


@<TRIPOS>ATOM
      1 CA         27.6090   21.6657    0.4249 C.3       0 UNK        -0.1979 
      2 C          28.5674   22.5542   -0.3530 C.2       0 UNK         0.4864 
      3 O          28.4111   22.6991   -1.5664 O.2       0 UNK        -0.5359 
      4 N          29.5476   23.1643    0.3301 N.am      1 UNK        -0.4318 
      5 CA         30.5284   24.0940   -0.2416 C.3       1 UNK         0.0824 
      6 C6         31.6206   24.4798    0.7871 C.3       12 UNK        -0.0944 
      7 S7         32.9687   23.2493    0.8797 S.3       12 UNK        -0.2672 
      8 C8         32.2682   21.8723    1.8534 C.3       12 UNK         0.0333 
      9 C9         31.6695   22.3242    3.1775 C.ar      12 UNK        -0.0807 
     10 C10        32.4642   22.9667    4.1302 C.ar      12 UNK        -0.0894 
     11 C11        31.9087   23.4335    5.3268 C.ar      12 UNK        -0.0804 
     12 C12        30.5458   23.2306    5.5711 C.ar      12 UNK        -0.0824 
     13 C13        29.7458   22.5643    4.6359 C.ar      12 UNK        -0.0762 
     14 C14        30.3179   22.1010    3.4496 C.ar      12 UNK        -0.0782 
     15 C15        28.2636   22.3348    4.8996 C.3       12 UNK         0.0230 
     16 S16        27.2164   23.4588    3.9166 S.3       12 UNK        -0.2608 
     17 C17        27.6300   25.0723    4.6549 C.3       12 UNK        -0.0989 
     18 CA         28.4852   25.9433    3.6895 C.3       5 UNK         0.0716 
     19 N          27.7651   26.3948    2.4928 N.am      5 UNK        -0.4135 
     20 C          26.7050   27.2181    2.4719 C.2       4 UNK         0.5031 
     21 O          26.1616   27.6648    3.4831 O.2       4 UNK        -0.5229 
     22 CA         26.1433   27.6225    1.1016 C.3       4 UNK         0.0329 
     23 CB         26.8456   28.8922    0.5939 C.3       4 UNK        -0.2001 
     24 N          26.3033   26.5700    0.0987 N.am      4 UNK        -0.4303 
     25 C          25.3041   25.9707   -0.5656 C.2       3 UNK         0.5044 
     26 O          24.1122   26.1536   -0.3111 O.2       3 UNK        -0.5152 
     27 CA         25.6924   25.0127   -1.7178 C.3       3 UNK         0.0319 
     28 CB         24.6557   25.0079   -2.8610 C.3       3 UNK        -0.2001 
     29 N          27.0470   25.2384   -2.2414 N.am      3 UNK        -0.4354 
     30 C          27.5404   26.3728   -2.7692 C.2       2 UNK         0.4964 
     31 O          26.8435   27.3410   -3.0758 O.2       2 UNK        -0.5047 
     32 CA         29.0753   26.4707   -2.9274 C.3       2 UNK         0.0288 
     33 CB         29.5834   27.9006   -2.6477 C.3       2 UNK        -0.2113 
     34 N          29.8269   25.4962   -2.1194 N.am      2 UNK        -0.4145 
     35 C          29.7950   25.3338   -0.7862 C.2       1 UNK         0.5006 
     36 O          29.1504   26.0441   -0.0085 O.2       1 UNK        -0.5103 
     37 C          29.1839   27.1418    4.3634 C.2       5 UNK         0.5055 
     38 O          30.0519   27.7466    3.7334 O.2       5 UNK        -0.5220 
     39 N          28.8297   27.4683    5.6139 N.am      6 UNK        -0.4450 
     40 CA         29.4559   28.5059    6.4408 C.3       6 UNK         0.0367 
     41 CB         29.1893   28.1851    7.9232 C.3       6 UNK        -0.1929 
     42 C          29.0428   29.9429    6.0563 C.2       6 UNK         0.5070 
     43 O          28.6686   30.7320    6.9258 O.2       6 UNK        -0.5237 
     44 N          29.1355   30.2632    4.7634 N.am      7 UNK        -0.4739 
     45 CA         29.0262   31.6123    4.2136 C.3       7 UNK         0.0276 
     46 CB         28.2096   31.5534    2.9144 C.3       7 UNK        -0.1927 
     47 C          30.4375   32.1355    3.9257 C.2       7 UNK         0.5013 
     48 O          31.3278   31.3364    3.6253 O.2       7 UNK        -0.5193 
     49 N          30.6183   33.4622    3.9703 N.am      8 UNK        -0.4253 
     50 CA         31.9081   34.1421    3.7739 C.3       8 UNK         0.0242 
     51 CB         31.7270   35.6502    4.0119 C.3       8 UNK        -0.2000 
     52 C          32.5725   33.8911    2.4054 C.2       8 UNK         0.4948 
     53 O          33.7982   33.9558    2.3089 O.2       8 UNK        -0.5275 
     54 N          31.7598   33.5902    1.3842 N.am      9 UNK        -0.4246 
     55 CA         32.2025   33.1987    0.0440 C.3       9 UNK         0.0261 
     56 CB         31.0832   33.5365   -0.9568 C.3       9 UNK        -0.1959 
     57 C          32.5911   31.7093   -0.0675 C.2       9 UNK         0.5033 
     58 O          33.0813   31.3072   -1.1243 O.2       9 UNK        -0.5390 
     59 N          32.3452   30.9149    0.9824 N.am      10 UNK        -0.4215 
     60 CA         32.5412   29.4700    1.0228 C.3       10 UNK         0.0240 
     61 CB         31.1654   28.7824    0.9235 C.3       10 UNK        -0.1982 
     62 C          33.3641   29.1078    2.2701 C.2       10 UNK         0.4970 
     63 O          34.5298   29.5014    2.3401 O.2       10 UNK        -0.4916 
     64 N          32.7818   28.3512    3.2089 N.am      11 UNK        -0.4279 
     65 CA         33.4522   27.8409    4.4150 C.3       11 UNK         0.1003 
     66 C          33.6227   28.8798    5.5635 C.2       11 UNK         0.5709 
     67 N          33.0243   30.0621    5.4995 N.am      11 UNK        -0.7358 
     68 O          34.3283   28.6160    6.5338 O.2       11 UNK        -0.4999 
     69 C69        32.7736   26.5303    4.9013 C.3       12 UNK        -0.0954 
     70 S70        33.9350   25.3553    5.6659 S.3       12 UNK        -0.2268 
     71 C71        32.7730   24.1374    6.3709 C.3       12 UNK         0.0203 
     72 H72        27.7333   21.7686    1.5010 H         1 UNK         0.0888 
     73 H73        26.5786   21.9244    0.1833 H         1 UNK         0.0888 
     74 H74        27.7685   20.6210    0.1599 H         1 UNK         0.0888 
     75 H75        29.6016   23.0498    1.3306 H         1 UNK         0.3017 
     76 H76        31.0092   23.5897   -1.0830 H         1 UNK         0.0873 
     77 H77        32.1020   25.4172    0.5010 H         1 UNK         0.0745 
     78 H78        31.1982   24.6633    1.7763 H         1 UNK         0.0745 
     79 H79        33.0594   21.1484    2.0531 H         1 UNK         0.0705 
     80 H80        31.5286   21.3506    1.2445 H         1 UNK         0.0705 
     81 H81        33.5151   23.1203    3.9265 H         1 UNK         0.1334 
     82 H82        30.1090   23.5828    6.4956 H         1 UNK         0.1417 
     83 H83        29.7048   21.5647    2.7403 H         1 UNK         0.1562 
     84 H84        28.0326   22.4529    5.9595 H         1 UNK         0.0748 
     85 H85        28.0066   21.3048    4.6479 H         1 UNK         0.0748 
     86 H86        28.1571   24.8902    5.5922 H         1 UNK         0.0940 
     87 H87        26.6998   25.5718    4.9289 H         1 UNK         0.0940 
     88 H88        29.3023   25.3185    3.3254 H         1 UNK         0.0703 
     89 H89        28.2081   26.1612    1.6089 H         1 UNK         0.3081 
     90 H90        25.0853   27.8545    1.2403 H         1 UNK         0.0719 
     91 H91        26.6551   29.7308    1.2624 H         1 UNK         0.0809 
     92 H92        27.9265   28.7592    0.5261 H         1 UNK         0.0809 
     93 H93        26.4823   29.1786   -0.3934 H         1 UNK         0.0809 
     94 H94        27.2593   26.3454   -0.1600 H         1 UNK         0.2990 
     95 H95        25.7040   24.0130   -1.2817 H         1 UNK         0.0690 
     96 H96        24.5307   25.9984   -3.2992 H         1 UNK         0.0788 
     97 H97        23.6772   24.6869   -2.5017 H         1 UNK         0.0788 
     98 H98        24.9466   24.3225   -3.6570 H         1 UNK         0.0788 
     99 H99        27.6956   24.4742   -2.0703 H         1 UNK         0.2993 
    100 H100       29.2894   26.2357   -3.9711 H         1 UNK         0.0949 
    101 H101       29.2548   28.2540   -1.6706 H         1 UNK         0.0767 
    102 H102       30.6715   27.9559   -2.6807 H         1 UNK         0.0767 
    103 H103       29.2007   28.6035   -3.3886 H         1 UNK         0.0767 
    104 H104       30.3522   24.8202   -2.6575 H         1 UNK         0.3013 
    105 H105       28.0524   26.9801    6.0332 H         1 UNK         0.3121 
    106 H106       30.5355   28.4565    6.2903 H         1 UNK         0.0774 
    107 H107       29.6996   28.8950    8.5756 H         1 UNK         0.0815 
    108 H108       28.1257   28.2296    8.1605 H         1 UNK         0.0815 
    109 H109       29.5531   27.1917    8.1866 H         1 UNK         0.0815 
    110 H110       29.5109   29.5534    4.1405 H         1 UNK         0.2987 
    111 H111       28.5298   32.2793    4.9218 H         1 UNK         0.0949 
    112 H112       28.0925   32.5452    2.4760 H         1 UNK         0.0806 
    113 H113       28.6848   30.9177    2.1660 H         1 UNK         0.0806 
    114 H114       27.2091   31.1636    3.1019 H         1 UNK         0.0806 
    115 H115       29.8317   34.0515    4.2043 H         1 UNK         0.3010 
    116 H116       32.5934   33.7576    4.5325 H         1 UNK         0.0829 
    117 H117       31.3636   35.8536    5.0194 H         1 UNK         0.0813 
    118 H118       32.6742   36.1801    3.8998 H         1 UNK         0.0813 
    119 H119       31.0229   36.0894    3.3040 H         1 UNK         0.0813 
    120 H120       30.7655   33.5721    1.5573 H         1 UNK         0.3038 
    121 H121       33.0850   33.7846   -0.2219 H         1 UNK         0.0769 
    122 H122       30.8313   34.5968   -0.9286 H         1 UNK         0.0811 
    123 H123       31.3887   33.3067   -1.9786 H         1 UNK         0.0811 
    124 H124       30.1746   32.9681   -0.7539 H         1 UNK         0.0811 
    125 H125       32.0063   31.3214    1.8510 H         1 UNK         0.3204 
    126 H126       33.1387   29.1426    0.1697 H         1 UNK         0.0748 
    127 H127       30.7210   28.9628   -0.0533 H         1 UNK         0.0771 
    128 H128       31.2372   27.7014    1.0464 H         1 UNK         0.0771 
    129 H129       30.4675   29.1646    1.6676 H         1 UNK         0.0771 
    130 H130       31.7910   28.1330    3.1378 H         1 UNK         0.2980 
    131 H131       34.4677   27.5841    4.1071 H         1 UNK         0.0545 
    132 H132       32.4531   30.3278    4.7020 H         1 UNK         0.3459 
    133 H133       33.1656   30.7171    6.2504 H         1 UNK         0.3459 
    134 H134       31.9604   26.7367    5.5974 H         1 UNK         0.0616 
    135 H135       32.3186   26.0073    4.0582 H         1 UNK         0.0616 
    136 H136       32.1495   24.6442    7.1092 H         1 UNK         0.0634 
    137 H137       33.3453   23.3840    6.9132 H         1 UNK         0.0634 
@<TRIPOS>BOND
     1    1    2 1    
     2    1   72 1    
     3    1   73 1    
     4    1   74 1    
     5    2    3 2    
     6    2    4 am   BACKBONE|DICT|INTERRES
     7    4    5 1    
     8    4   75 1    
     9    5    6 1    
    10    5   35 1    
    11    5   76 1    
    12    6    7 1    
    13    6   77 1    
    14    6   78 1    
    15    7    8 1    
    16    8    9 1    
    17    8   79 1    
    18    8   80 1    
    19    9   10 ar   
    20    9   14 ar   
    21   10   11 ar   
    22   10   81 1    
    23   11   12 ar   
    24   11   71 1    
    25   12   13 ar   
    26   12   82 1    
    27   13   14 ar   
    28   13   15 1    
    29   14   83 1    
    30   15   16 1    
    31   15   84 1    
    32   15   85 1    
    33   16   17 1    
    34   17   18 1    
    35   17   86 1    
    36   17   87 1    
    37   18   19 1    
    38   18   37 1    
    39   18   88 1    
    40   19   20 am   BACKBONE|DICT|INTERRES
    41   19   89 1    
    42   20   21 2    
    43   20   22 1    
    44   22   23 1    
    45   22   24 1    
    46   22   90 1    
    47   23   91 1    
    48   23   92 1    
    49   23   93 1    
    50   24   25 am   BACKBONE|DICT|INTERRES
    51   24   94 1    
    52   25   26 2    
    53   25   27 1    
    54   27   28 1    
    55   27   29 1    
    56   27   95 1    
    57   28   96 1    
    58   28   97 1    
    59   28   98 1    
    60   29   30 am   BACKBONE|DICT|INTERRES
    61   29   99 1    
    62   30   31 2    
    63   30   32 1    
    64   32   33 1    
    65   32   34 1    
    66   32  100 1    
    67   33  101 1    
    68   33  102 1    
    69   33  103 1    
    70   34   35 am   BACKBONE|DICT|INTERRES
    71   34  104 1    
    72   35   36 2    
    73   37   38 2    
    74   37   39 am   BACKBONE|DICT|INTERRES
    75   39   40 1    
    76   39  105 1    
    77   40   41 1    
    78   40   42 1    
    79   40  106 1    
    80   41  107 1    
    81   41  108 1    
    82   41  109 1    
    83   42   43 2    
    84   42   44 am   BACKBONE|DICT|INTERRES
    85   44   45 1    
    86   44  110 1    
    87   45   46 1    
    88   45   47 1    
    89   45  111 1    
    90   46  112 1    
    91   46  113 1    
    92   46  114 1    
    93   47   48 2    
    94   47   49 am   BACKBONE|DICT|INTERRES
    95   49   50 1    
    96   49  115 1    
    97   50   51 1    
    98   50   52 1    
    99   50  116 1    
   100   51  117 1    
   101   51  118 1    
   102   51  119 1    
   103   52   53 2    
   104   52   54 am   BACKBONE|DICT|INTERRES
   105   54   55 1    
   106   54  120 1    
   107   55   56 1    
   108   55   57 1    
   109   55  121 1    
   110   56  122 1    
   111   56  123 1    
   112   56  124 1    
   113   57   58 2    
   114   57   59 am   BACKBONE|DICT|INTERRES
   115   59   60 1    
   116   59  125 1    
   117   60   61 1    
   118   60   62 1    
   119   60  126 1    
   120   61  127 1    
   121   61  128 1    
   122   61  129 1    
   123   62   63 2    
   124   62   64 am   BACKBONE|DICT|INTERRES
   125   64   65 1    
   126   64  130 1    
   127   65   66 1    
   128   65   69 1    
   129   65  131 1    
   130   66   67 am   BACKBONE|DICT|INTERRES
   131   66   68 2    
   132   67  132 1    
   133   67  133 1    
   134   69   70 1    
   135   69  134 1    
   136   69  135 1    
   137   70   71 1    
   138   71  136 1    
   139   71  137 1    
@<TRIPOS>SUBSTRUCTURE
     1 UNK         1 GROUP             0       ****    0 ROOT    
