@<TRIPOS>MOLECULE
3R136
137   139    1
SMALL
USER_CHARGES


@<TRIPOS>ATOM
      1 CA         34.9641   20.5308    1.4187 C.3       0 UNK        -0.1979 
      2 C          34.3641   21.8857    1.0719 C.2       0 UNK         0.4864 
      3 O          35.0326   22.7070    0.4418 O.2       0 UNK        -0.5359 
      4 N          33.1132   22.1256    1.4842 N.am      1 UNK        -0.4318 
      5 CA         32.3497   23.3390    1.1817 C.3       1 UNK         0.0824 
      6 C6         31.1889   23.5395    2.1936 C.3       12 UNK        -0.0944 
      7 S7         29.9086   22.2289    2.1652 S.3       12 UNK        -0.2672 
      8 C8         29.6177   21.9093    3.9341 C.3       12 UNK         0.0333 
      9 C9         28.9472   23.0931    4.6152 C.ar      12 UNK        -0.0807 
     10 C10        29.7192   24.0256    5.3099 C.ar      12 UNK        -0.0894 
     11 C11        29.1238   25.1440    5.8968 C.ar      12 UNK        -0.0804 
     12 C12        27.7368   25.3030    5.8336 C.ar      12 UNK        -0.0824 
     13 C13        26.9514   24.3727    5.1464 C.ar      12 UNK        -0.0762 
     14 C14        27.5618   23.2696    4.5380 C.ar      12 UNK        -0.0782 
     15 C15        25.4457   24.5623    5.0472 C.3       12 UNK         0.0230 
     16 S16        24.9798   25.4339    3.5176 S.3       12 UNK        -0.2608 
     17 C17        25.2088   27.1936    3.9649 C.3       12 UNK        -0.0989 
     18 CA         26.5150   27.8201    3.3980 C.3       5 UNK         0.0716 
     19 N          26.7116   27.5817    1.9604 N.am      5 UNK        -0.4135 
     20 C          25.9348   28.0204    0.9565 C.2       4 UNK         0.5031 
     21 O          24.9383   28.7278    1.1069 O.2       4 UNK        -0.5229 
     22 CA         26.3516   27.6052   -0.4635 C.3       4 UNK         0.0329 
     23 CB         27.2650   28.6713   -1.0916 C.3       4 UNK        -0.2001 
     24 N          27.0438   26.3169   -0.4585 N.am      4 UNK        -0.4303 
     25 C          26.4326   25.1238   -0.4460 C.2       3 UNK         0.5044 
     26 O          25.2141   24.9808   -0.5598 O.2       3 UNK        -0.5152 
     27 CA         27.3333   23.8889   -0.2432 C.3       3 UNK         0.0319 
     28 CB         26.7558   22.6051   -0.8753 C.3       3 UNK        -0.2001 
     29 N          28.7246   24.1114   -0.6550 N.am      3 UNK        -0.4354 
     30 C          29.1963   24.3393   -1.8924 C.2       2 UNK         0.4964 
     31 O          28.4979   24.3356   -2.9061 O.2       2 UNK        -0.5047 
     32 CA         30.6978   24.6713   -2.0251 C.3       2 UNK         0.0288 
     33 CB         30.8799   26.1052   -2.5530 C.3       2 UNK        -0.2113 
     34 N          31.4286   24.5201   -0.7596 N.am      2 UNK        -0.4145 
     35 C          31.8426   23.3397   -0.2773 C.2       1 UNK         0.5006 
     36 O          31.7685   22.2836   -0.9129 O.2       1 UNK        -0.5103 
     37 C          26.6741   29.3144    3.7731 C.2       5 UNK         0.5055 
     38 O          26.0865   29.7706    4.7562 O.2       5 UNK        -0.5220 
     39 N          27.4506   30.0540    2.9684 N.am      6 UNK        -0.4450 
     40 CA         27.7258   31.4813    3.1215 C.3       6 UNK         0.0367 
     41 CB         28.3132   32.0056    1.7995 C.3       6 UNK        -0.1929 
     42 C          28.6853   31.7716    4.2870 C.2       6 UNK         0.5070 
     43 O          29.4486   30.8991    4.6989 O.2       6 UNK        -0.5237 
     44 N          28.6752   33.0249    4.7565 N.am      7 UNK        -0.4739 
     45 CA         29.5510   33.5325    5.8216 C.3       7 UNK         0.0276 
     46 CB         28.9153   34.8032    6.4134 C.3       7 UNK        -0.1927 
     47 C          31.0051   33.8026    5.3746 C.2       7 UNK         0.5013 
     48 O          31.8064   34.2652    6.1883 O.2       7 UNK        -0.5193 
     49 N          31.3218   33.5340    4.1041 N.am      8 UNK        -0.4253 
     50 CA         32.6296   33.6971    3.4800 C.3       8 UNK         0.0242 
     51 CB         32.7095   35.0931    2.8331 C.3       8 UNK        -0.2000 
     52 C          32.8234   32.5804    2.4443 C.2       8 UNK         0.4948 
     53 O          31.8986   31.7990    2.2037 O.2       8 UNK        -0.5275 
     54 N          34.0260   32.5280    1.8521 N.am      9 UNK        -0.4246 
     55 CA         34.4442   31.6045    0.7856 C.3       9 UNK         0.0261 
     56 CB         33.6846   31.9114   -0.5237 C.3       9 UNK        -0.1959 
     57 C          34.3583   30.1169    1.1846 C.2       9 UNK         0.5033 
     58 O          34.0070   29.2772    0.3529 O.2       9 UNK        -0.5390 
     59 N          34.6607   29.8242    2.4602 N.am      10 UNK        -0.4215 
     60 CA         34.6562   28.4968    3.0937 C.3       10 UNK         0.0240 
     61 CB         35.8632   27.6695    2.6012 C.3       10 UNK        -0.1982 
     62 C          33.3187   27.7413    2.9408 C.2       10 UNK         0.4970 
     63 O          33.3239   26.5228    2.7543 O.2       10 UNK        -0.4916 
     64 N          32.2040   28.4859    2.9914 N.am      11 UNK        -0.4279 
     65 CA         30.8348   28.0040    2.7492 C.3       11 UNK         0.1003 
     66 C          30.5591   27.5496    1.2825 C.2       11 UNK         0.5709 
     67 N          31.4107   27.8654    0.3140 N.am      11 UNK        -0.7358 
     68 O          29.5348   26.9265    1.0030 O.2       11 UNK        -0.4999 
     69 C69        30.3657   26.9613    3.8028 C.3       12 UNK        -0.0954 
     70 S70        30.1399   27.6883    5.4624 S.3       12 UNK        -0.2268 
     71 C71        29.9981   26.2154    6.5287 C.3       12 UNK         0.0203 
     72 H72        35.8680   20.6614    2.0131 H         1 UNK         0.0888 
     73 H73        34.2708   19.9115    1.9877 H         1 UNK         0.0888 
     74 H74        35.2287   19.9941    0.5080 H         1 UNK         0.0888 
     75 H75        32.5947   21.3999    1.9580 H         1 UNK         0.3017 
     76 H76        33.0277   24.1896    1.2858 H         1 UNK         0.0873 
     77 H77        30.6949   24.4977    2.0285 H         1 UNK         0.0745 
     78 H78        31.6145   23.6059    3.1948 H         1 UNK         0.0745 
     79 H79        28.9860   21.0253    4.0327 H         1 UNK         0.0705 
     80 H80        30.5624   21.6641    4.4221 H         1 UNK         0.0705 
     81 H81        30.7923   23.9038    5.3599 H         1 UNK         0.1334 
     82 H82        27.2765   26.1713    6.2849 H         1 UNK         0.1417 
     83 H83        26.9604   22.5554    3.9917 H         1 UNK         0.1562 
     84 H84        25.0617   25.0941    5.9189 H         1 UNK         0.0748 
     85 H85        24.9564   23.5871    5.0530 H         1 UNK         0.0748 
     86 H86        25.1800   27.2926    5.0513 H         1 UNK         0.0940 
     87 H87        24.3400   27.7424    3.5971 H         1 UNK         0.0940 
     88 H88        27.3438   27.3184    3.8933 H         1 UNK         0.0703 
     89 H89        27.5250   27.0304    1.7156 H         1 UNK         0.3081 
     90 H90        25.4479   27.5270   -1.0719 H         1 UNK         0.0719 
     91 H91        28.1878   28.8052   -0.5264 H         1 UNK         0.0809 
     92 H92        27.5354   28.4065   -2.1139 H         1 UNK         0.0809 
     93 H93        26.7635   29.6394   -1.1301 H         1 UNK         0.0809 
     94 H94        28.0473   26.3432   -0.3179 H         1 UNK         0.2990 
     95 H95        27.3682   23.7292    0.8358 H         1 UNK         0.0690 
     96 H96        27.4121   21.7515   -0.7054 H         1 UNK         0.0788 
     97 H97        26.6106   22.7106   -1.9507 H         1 UNK         0.0788 
     98 H98        25.7865   22.3580   -0.4406 H         1 UNK         0.0788 
     99 H99        29.3899   24.1373    0.1039 H         1 UNK         0.2993 
    100 H100       31.1217   23.9838   -2.7607 H         1 UNK         0.0949 
    101 H101       30.5280   26.1800   -3.5829 H         1 UNK         0.0767 
    102 H102       30.3066   26.8279   -1.9728 H         1 UNK         0.0767 
    103 H103       31.9275   26.4077   -2.5500 H         1 UNK         0.0767 
    104 H104       31.5304   25.3486   -0.1896 H         1 UNK         0.3013 
    105 H105       27.9034   29.5919    2.1960 H         1 UNK         0.3121 
    106 H106       26.7805   31.9927    3.3162 H         1 UNK         0.0774 
    107 H107       28.5097   33.0773    1.8497 H         1 UNK         0.0815 
    108 H108       29.2556   31.5140    1.5533 H         1 UNK         0.0815 
    109 H109       27.6256   31.8453    0.9687 H         1 UNK         0.0815 
    110 H110       28.0369   33.6927    4.3465 H         1 UNK         0.2987 
    111 H111       29.6015   32.7794    6.6114 H         1 UNK         0.0949 
    112 H112       29.4996   35.1813    7.2535 H         1 UNK         0.0806 
    113 H113       28.8518   35.6036    5.6752 H         1 UNK         0.0806 
    114 H114       27.9098   34.6080    6.7868 H         1 UNK         0.0806 
    115 H115       30.6449   33.0506    3.5281 H         1 UNK         0.3010 
    116 H116       33.4129   33.5942    4.2341 H         1 UNK         0.0829 
    117 H117       32.5438   35.8796    3.5697 H         1 UNK         0.0813 
    118 H118       33.6888   35.2736    2.3889 H         1 UNK         0.0813 
    119 H119       31.9651   35.2133    2.0448 H         1 UNK         0.0813 
    120 H120       34.7218   33.2062    2.1327 H         1 UNK         0.3038 
    121 H121       35.5016   31.8035    0.6044 H         1 UNK         0.0769 
    122 H122       34.0812   31.3256   -1.3539 H         1 UNK         0.0811 
    123 H123       33.7746   32.9621   -0.7988 H         1 UNK         0.0811 
    124 H124       32.6229   31.6760   -0.4394 H         1 UNK         0.0811 
    125 H125       34.9168   30.5945    3.0622 H         1 UNK         0.3204 
    126 H126       34.7846   28.6644    4.1641 H         1 UNK         0.0748 
    127 H127       35.9455   26.7291    3.1479 H         1 UNK         0.0771 
    128 H128       35.7770   27.4240    1.5420 H         1 UNK         0.0771 
    129 H129       36.7997   28.2082    2.7454 H         1 UNK         0.0771 
    130 H130       32.2925   29.4870    3.1011 H         1 UNK         0.2980 
    131 H131       30.2034   28.8849    2.8643 H         1 UNK         0.0545 
    132 H132       32.2654   28.3787    0.5096 H         1 UNK         0.3459 
    133 H133       31.1900   27.6317   -0.6378 H         1 UNK         0.3459 
    134 H134       29.4146   26.5157    3.5134 H         1 UNK         0.0616 
    135 H135       31.0675   26.1312    3.8732 H         1 UNK         0.0616 
    136 H136       30.9987   25.8286    6.7277 H         1 UNK         0.0634 
    137 H137       29.5836   26.5104    7.4935 H         1 UNK         0.0634 
@<TRIPOS>BOND
     1    1    2 1    
     2    1   72 1    
     3    1   73 1    
     4    1   74 1    
     5    2    3 2    
     6    2    4 am   BACKBONE|DICT|INTERRES
     7    4    5 1    
     8    4   75 1    
     9    5    6 1    
    10    5   35 1    
    11    5   76 1    
    12    6    7 1    
    13    6   77 1    
    14    6   78 1    
    15    7    8 1    
    16    8    9 1    
    17    8   79 1    
    18    8   80 1    
    19    9   10 ar   
    20    9   14 ar   
    21   10   11 ar   
    22   10   81 1    
    23   11   12 ar   
    24   11   71 1    
    25   12   13 ar   
    26   12   82 1    
    27   13   14 ar   
    28   13   15 1    
    29   14   83 1    
    30   15   16 1    
    31   15   84 1    
    32   15   85 1    
    33   16   17 1    
    34   17   18 1    
    35   17   86 1    
    36   17   87 1    
    37   18   19 1    
    38   18   37 1    
    39   18   88 1    
    40   19   20 am   BACKBONE|DICT|INTERRES
    41   19   89 1    
    42   20   21 2    
    43   20   22 1    
    44   22   23 1    
    45   22   24 1    
    46   22   90 1    
    47   23   91 1    
    48   23   92 1    
    49   23   93 1    
    50   24   25 am   BACKBONE|DICT|INTERRES
    51   24   94 1    
    52   25   26 2    
    53   25   27 1    
    54   27   28 1    
    55   27   29 1    
    56   27   95 1    
    57   28   96 1    
    58   28   97 1    
    59   28   98 1    
    60   29   30 am   BACKBONE|DICT|INTERRES
    61   29   99 1    
    62   30   31 2    
    63   30   32 1    
    64   32   33 1    
    65   32   34 1    
    66   32  100 1    
    67   33  101 1    
    68   33  102 1    
    69   33  103 1    
    70   34   35 am   BACKBONE|DICT|INTERRES
    71   34  104 1    
    72   35   36 2    
    73   37   38 2    
    74   37   39 am   BACKBONE|DICT|INTERRES
    75   39   40 1    
    76   39  105 1    
    77   40   41 1    
    78   40   42 1    
    79   40  106 1    
    80   41  107 1    
    81   41  108 1    
    82   41  109 1    
    83   42   43 2    
    84   42   44 am   BACKBONE|DICT|INTERRES
    85   44   45 1    
    86   44  110 1    
    87   45   46 1    
    88   45   47 1    
    89   45  111 1    
    90   46  112 1    
    91   46  113 1    
    92   46  114 1    
    93   47   48 2    
    94   47   49 am   BACKBONE|DICT|INTERRES
    95   49   50 1    
    96   49  115 1    
    97   50   51 1    
    98   50   52 1    
    99   50  116 1    
   100   51  117 1    
   101   51  118 1    
   102   51  119 1    
   103   52   53 2    
   104   52   54 am   BACKBONE|DICT|INTERRES
   105   54   55 1    
   106   54  120 1    
   107   55   56 1    
   108   55   57 1    
   109   55  121 1    
   110   56  122 1    
   111   56  123 1    
   112   56  124 1    
   113   57   58 2    
   114   57   59 am   BACKBONE|DICT|INTERRES
   115   59   60 1    
   116   59  125 1    
   117   60   61 1    
   118   60   62 1    
   119   60  126 1    
   120   61  127 1    
   121   61  128 1    
   122   61  129 1    
   123   62   63 2    
   124   62   64 am   BACKBONE|DICT|INTERRES
   125   64   65 1    
   126   64  130 1    
   127   65   66 1    
   128   65   69 1    
   129   65  131 1    
   130   66   67 am   BACKBONE|DICT|INTERRES
   131   66   68 2    
   132   67  132 1    
   133   67  133 1    
   134   69   70 1    
   135   69  134 1    
   136   69  135 1    
   137   70   71 1    
   138   71  136 1    
   139   71  137 1    
@<TRIPOS>SUBSTRUCTURE
     1 UNK         1 GROUP             0       ****    0 ROOT    
