@<TRIPOS>MOLECULE
3R136
137   139    1
SMALL
USER_CHARGES


@<TRIPOS>ATOM
      1 CA         30.0790   26.9280    3.0157 C.3       0 UNK        -0.1979 
      2 C          29.4267   25.6403    2.5305 C.2       0 UNK         0.4864 
      3 O          28.8765   25.6187    1.4281 O.2       0 UNK        -0.5359 
      4 N          29.4786   24.5833    3.3567 N.am      1 UNK        -0.4318 
      5 CA         28.9850   23.2208    3.0942 C.3       1 UNK         0.0824 
      6 C6         29.7722   22.5133    1.9514 C.3       12 UNK        -0.0944 
      7 S7         31.5231   22.2585    2.3850 S.3       12 UNK        -0.2672 
      8 C8         32.3332   22.4906    0.7713 C.3       12 UNK         0.0333 
      9 C9         32.5024   23.9616    0.4207 C.ar      12 UNK        -0.0807 
     10 C10        33.3826   24.7520    1.1644 C.ar      12 UNK        -0.0894 
     11 C11        33.5809   26.1025    0.8483 C.ar      12 UNK        -0.0804 
     12 C12        32.8943   26.6448   -0.2433 C.ar      12 UNK        -0.0824 
     13 C13        32.0199   25.8629   -1.0058 C.ar      12 UNK        -0.0762 
     14 C14        31.8191   24.5229   -0.6620 C.ar      12 UNK        -0.0782 
     15 C15        31.3237   26.4552   -2.2250 C.3       12 UNK         0.0230 
     16 S16        29.5907   26.9001   -1.8946 S.3       12 UNK        -0.2608 
     17 C17        29.8026   28.2392   -0.6774 C.3       12 UNK        -0.0989 
     18 CA         28.4596   28.8885   -0.2584 C.3       5 UNK         0.0716 
     19 N          27.5408   27.9046    0.3192 N.am      5 UNK        -0.4135 
     20 C          26.2196   28.0623    0.4678 C.2       4 UNK         0.5031 
     21 O          25.6062   29.0689    0.1020 O.2       4 UNK        -0.5229 
     22 CA         25.4718   26.8978    1.1394 C.3       4 UNK         0.0329 
     23 CB         23.9444   27.1105    1.2061 C.3       4 UNK        -0.2001 
     24 N          25.7949   25.6049    0.5308 N.am      4 UNK        -0.4303 
     25 C          25.5888   25.2224   -0.7411 C.2       3 UNK         0.5044 
     26 O          25.0706   25.9341   -1.6024 O.2       3 UNK        -0.5152 
     27 CA         26.0252   23.7949   -1.1298 C.3       3 UNK         0.0319 
     28 CB         27.3669   23.8351   -1.8800 C.3       3 UNK        -0.2001 
     29 N          26.1578   22.8907    0.0133 N.am      3 UNK        -0.4354 
     30 C          25.1593   22.4745    0.8072 C.2       2 UNK         0.4964 
     31 O          23.9682   22.6862    0.5794 O.2       2 UNK        -0.5047 
     32 CA         25.5624   21.7247    2.0935 C.3       2 UNK         0.0288 
     33 CB         25.3407   20.2122    1.9286 C.3       2 UNK        -0.2113 
     34 N          26.9539   21.9665    2.4989 N.am      2 UNK        -0.4145 
     35 C          27.4517   23.1533    2.8825 C.2       1 UNK         0.5006 
     36 O          26.7427   24.1494    3.0498 O.2       1 UNK        -0.5103 
     37 C          28.6771   30.0600    0.7228 C.2       5 UNK         0.5055 
     38 O          29.7510   30.1744    1.3122 O.2       5 UNK        -0.5220 
     39 N          27.6498   30.9035    0.8960 N.am      6 UNK        -0.4450 
     40 CA         27.5886   32.0165    1.8539 C.3       6 UNK         0.0367 
     41 CB         26.2131   32.6935    1.7500 C.3       6 UNK        -0.1929 
     42 C          28.7128   33.0622    1.7241 C.2       6 UNK         0.5070 
     43 O          29.0375   33.7221    2.7111 O.2       6 UNK        -0.5237 
     44 N          29.3131   33.1722    0.5309 N.am      7 UNK        -0.4739 
     45 CA         30.5029   33.9854    0.2595 C.3       7 UNK         0.0276 
     46 CB         30.7323   34.0417   -1.2596 C.3       7 UNK        -0.1927 
     47 C          31.7755   33.4883    0.9770 C.2       7 UNK         0.5013 
     48 O          32.7141   34.2701    1.1341 O.2       7 UNK        -0.5193 
     49 N          31.7886   32.2179    1.4003 N.am      8 UNK        -0.4253 
     50 CA         32.8610   31.5799    2.1580 C.3       8 UNK         0.0242 
     51 CB         33.7376   30.7504    1.2009 C.3       8 UNK        -0.2000 
     52 C          32.2412   30.7482    3.2927 C.2       8 UNK         0.4948 
     53 O          32.5654   29.5696    3.4453 O.2       8 UNK        -0.5275 
     54 N          31.3290   31.3748    4.0517 N.am      9 UNK        -0.4246 
     55 CA         30.6229   30.7769    5.1878 C.3       9 UNK         0.0261 
     56 CB         29.5868   31.7796    5.7217 C.3       9 UNK        -0.1959 
     57 C          31.5767   30.3414    6.3152 C.2       9 UNK         0.5033 
     58 O          32.6114   30.9812    6.5227 O.2       9 UNK        -0.5390 
     59 N          31.1861   29.2745    7.0293 N.am      10 UNK        -0.4215 
     60 CA         31.9478   28.5934    8.0865 C.3       10 UNK         0.0240 
     61 CB         32.1302   29.5036    9.3212 C.3       10 UNK        -0.1982 
     62 C          33.2725   27.9999    7.5632 C.2       10 UNK         0.4970 
     63 O          34.3194   28.1641    8.1926 O.2       10 UNK        -0.4916 
     64 N          33.1904   27.3227    6.4093 N.am      11 UNK        -0.4279 
     65 CA         34.3157   26.6680    5.7226 C.3       11 UNK         0.1003 
     66 C          34.9569   25.4800    6.5022 C.2       11 UNK         0.5709 
     67 N          34.2466   24.8352    7.4211 N.am      11 UNK        -0.7358 
     68 O          36.1189   25.1477    6.2821 O.2       11 UNK        -0.4999 
     69 C69        33.9122   26.2508    4.2807 C.3       12 UNK        -0.0954 
     70 S70        35.3156   26.2914    3.1144 S.3       12 UNK        -0.2268 
     71 C71        34.5387   27.0117    1.6247 C.3       12 UNK         0.0203 
     72 H72        30.3686   26.8703    4.0640 H         1 UNK         0.0888 
     73 H73        30.9740   27.1383    2.4299 H         1 UNK         0.0888 
     74 H74        29.3944   27.7677    2.9007 H         1 UNK         0.0888 
     75 H75        29.9184   24.6979    4.2579 H         1 UNK         0.3017 
     76 H76        29.1632   22.6628    4.0148 H         1 UNK         0.0873 
     77 H77        29.6979   23.0846    1.0244 H         1 UNK         0.0745 
     78 H78        29.3761   21.5221    1.7286 H         1 UNK         0.0745 
     79 H79        31.7713   21.9613    0.0000 H         1 UNK         0.0705 
     80 H80        33.3177   22.0220    0.8055 H         1 UNK         0.0705 
     81 H81        33.9092   24.2936    1.9883 H         1 UNK         0.1334 
     82 H82        33.0503   27.6817   -0.5083 H         1 UNK         0.1417 
     83 H83        31.1421   23.9170   -1.2486 H         1 UNK         0.1562 
     84 H84        31.3488   25.7327   -3.0420 H         1 UNK         0.0748 
     85 H85        31.8590   27.3353   -2.5850 H         1 UNK         0.0748 
     86 H86        30.4723   28.9884   -1.1044 H         1 UNK         0.0940 
     87 H87        30.3141   27.8301    0.1949 H         1 UNK         0.0940 
     88 H88        27.9966   29.3000   -1.1579 H         1 UNK         0.0703 
     89 H89        27.9707   27.0369    0.6385 H         1 UNK         0.3081 
     90 H90        25.8418   26.8490    2.1648 H         1 UNK         0.0719 
     91 H91        23.7015   28.0179    1.7602 H         1 UNK         0.0809 
     92 H92        23.5037   27.2092    0.2136 H         1 UNK         0.0809 
     93 H93        23.4511   26.2800    1.7111 H         1 UNK         0.0809 
     94 H94        26.2598   24.9538    1.1545 H         1 UNK         0.2990 
     95 H95        25.2638   23.3872   -1.7979 H         1 UNK         0.0690 
     96 H96        27.6519   22.8474   -2.2425 H         1 UNK         0.0788 
     97 H97        28.1716   24.2067   -1.2432 H         1 UNK         0.0788 
     98 H98        27.3108   24.4943   -2.7476 H         1 UNK         0.0788 
     99 H99        27.0999   22.6436    0.2748 H         1 UNK         0.2993 
    100 H100       24.9120   22.0849    2.8937 H         1 UNK         0.0949 
    101 H101       24.3063   19.9970    1.6560 H         1 UNK         0.0767 
    102 H102       25.9771   19.7925    1.1484 H         1 UNK         0.0767 
    103 H103       25.5463   19.6770    2.8560 H         1 UNK         0.0767 
    104 H104       27.5819   21.1789    2.4237 H         1 UNK         0.3013 
    105 H105       26.7831   30.6639    0.4228 H         1 UNK         0.3121 
    106 H106       27.6777   31.5793    2.8501 H         1 UNK         0.0774 
    107 H107       25.4064   31.9882    1.9512 H         1 UNK         0.0815 
    108 H108       26.1201   33.5043    2.4743 H         1 UNK         0.0815 
    109 H109       26.0482   33.1200    0.7598 H         1 UNK         0.0815 
    110 H110       28.9732   32.5946   -0.2242 H         1 UNK         0.2987 
    111 H111       30.3064   34.9987    0.6169 H         1 UNK         0.0949 
    112 H112       29.8715   34.4661   -1.7767 H         1 UNK         0.0806 
    113 H113       31.5930   34.6671   -1.5015 H         1 UNK         0.0806 
    114 H114       30.9224   33.0517   -1.6763 H         1 UNK         0.0806 
    115 H115       30.9620   31.6384    1.2640 H         1 UNK         0.3010 
    116 H116       33.4884   32.3364    2.6341 H         1 UNK         0.0829 
    117 H117       34.5671   30.2863    1.7356 H         1 UNK         0.0813 
    118 H118       33.1630   29.9563    0.7227 H         1 UNK         0.0813 
    119 H119       34.1667   31.3734    0.4163 H         1 UNK         0.0813 
    120 H120       31.1171   32.3409    3.8469 H         1 UNK         0.3038 
    121 H121       30.0981   29.8956    4.8127 H         1 UNK         0.0769 
    122 H122       29.0252   31.3588    6.5569 H         1 UNK         0.0811 
    123 H123       28.8635   32.0535    4.9544 H         1 UNK         0.0811 
    124 H124       30.0605   32.6958    6.0770 H         1 UNK         0.0811 
    125 H125       30.2995   28.8492    6.7944 H         1 UNK         0.3204 
    126 H126       31.3415   27.7424    8.4010 H         1 UNK         0.0748 
    127 H127       32.5815   28.9531   10.1477 H         1 UNK         0.0771 
    128 H128       32.7774   30.3551    9.1091 H         1 UNK         0.0771 
    129 H129       31.1739   29.8894    9.6742 H         1 UNK         0.0771 
    130 H130       32.2943   27.2531    5.9541 H         1 UNK         0.2980 
    131 H131       35.0903   27.4338    5.6459 H         1 UNK         0.0545 
    132 H132       34.6713   24.0737    7.9263 H         1 UNK         0.3459 
    133 H133       33.2945   25.0999    7.6141 H         1 UNK         0.3459 
    134 H134       33.4540   25.2601    4.2625 H         1 UNK         0.0616 
    135 H135       33.1505   26.9307    3.8972 H         1 UNK         0.0616 
    136 H136       34.0105   27.9188    1.9157 H         1 UNK         0.0634 
    137 H137       35.3368   27.3236    0.9499 H         1 UNK         0.0634 
@<TRIPOS>BOND
     1    1    2 1    
     2    1   72 1    
     3    1   73 1    
     4    1   74 1    
     5    2    3 2    
     6    2    4 am   BACKBONE|DICT|INTERRES
     7    4    5 1    
     8    4   75 1    
     9    5    6 1    
    10    5   35 1    
    11    5   76 1    
    12    6    7 1    
    13    6   77 1    
    14    6   78 1    
    15    7    8 1    
    16    8    9 1    
    17    8   79 1    
    18    8   80 1    
    19    9   10 ar   
    20    9   14 ar   
    21   10   11 ar   
    22   10   81 1    
    23   11   12 ar   
    24   11   71 1    
    25   12   13 ar   
    26   12   82 1    
    27   13   14 ar   
    28   13   15 1    
    29   14   83 1    
    30   15   16 1    
    31   15   84 1    
    32   15   85 1    
    33   16   17 1    
    34   17   18 1    
    35   17   86 1    
    36   17   87 1    
    37   18   19 1    
    38   18   37 1    
    39   18   88 1    
    40   19   20 am   BACKBONE|DICT|INTERRES
    41   19   89 1    
    42   20   21 2    
    43   20   22 1    
    44   22   23 1    
    45   22   24 1    
    46   22   90 1    
    47   23   91 1    
    48   23   92 1    
    49   23   93 1    
    50   24   25 am   BACKBONE|DICT|INTERRES
    51   24   94 1    
    52   25   26 2    
    53   25   27 1    
    54   27   28 1    
    55   27   29 1    
    56   27   95 1    
    57   28   96 1    
    58   28   97 1    
    59   28   98 1    
    60   29   30 am   BACKBONE|DICT|INTERRES
    61   29   99 1    
    62   30   31 2    
    63   30   32 1    
    64   32   33 1    
    65   32   34 1    
    66   32  100 1    
    67   33  101 1    
    68   33  102 1    
    69   33  103 1    
    70   34   35 am   BACKBONE|DICT|INTERRES
    71   34  104 1    
    72   35   36 2    
    73   37   38 2    
    74   37   39 am   BACKBONE|DICT|INTERRES
    75   39   40 1    
    76   39  105 1    
    77   40   41 1    
    78   40   42 1    
    79   40  106 1    
    80   41  107 1    
    81   41  108 1    
    82   41  109 1    
    83   42   43 2    
    84   42   44 am   BACKBONE|DICT|INTERRES
    85   44   45 1    
    86   44  110 1    
    87   45   46 1    
    88   45   47 1    
    89   45  111 1    
    90   46  112 1    
    91   46  113 1    
    92   46  114 1    
    93   47   48 2    
    94   47   49 am   BACKBONE|DICT|INTERRES
    95   49   50 1    
    96   49  115 1    
    97   50   51 1    
    98   50   52 1    
    99   50  116 1    
   100   51  117 1    
   101   51  118 1    
   102   51  119 1    
   103   52   53 2    
   104   52   54 am   BACKBONE|DICT|INTERRES
   105   54   55 1    
   106   54  120 1    
   107   55   56 1    
   108   55   57 1    
   109   55  121 1    
   110   56  122 1    
   111   56  123 1    
   112   56  124 1    
   113   57   58 2    
   114   57   59 am   BACKBONE|DICT|INTERRES
   115   59   60 1    
   116   59  125 1    
   117   60   61 1    
   118   60   62 1    
   119   60  126 1    
   120   61  127 1    
   121   61  128 1    
   122   61  129 1    
   123   62   63 2    
   124   62   64 am   BACKBONE|DICT|INTERRES
   125   64   65 1    
   126   64  130 1    
   127   65   66 1    
   128   65   69 1    
   129   65  131 1    
   130   66   67 am   BACKBONE|DICT|INTERRES
   131   66   68 2    
   132   67  132 1    
   133   67  133 1    
   134   69   70 1    
   135   69  134 1    
   136   69  135 1    
   137   70   71 1    
   138   71  136 1    
   139   71  137 1    
@<TRIPOS>SUBSTRUCTURE
     1 UNK         1 GROUP             0       ****    0 ROOT    
