@<TRIPOS>MOLECULE
3R136
137   139    1
SMALL
USER_CHARGES


@<TRIPOS>ATOM
      1 CA         28.6506   29.3271   -1.0658 C.3       0 UNK        -0.1979 
      2 C          28.8553   27.9413   -0.4747 C.2       0 UNK         0.4864 
      3 O          28.2666   27.6232    0.5573 O.2       0 UNK        -0.5359 
      4 N          29.6930   27.1126   -1.1115 N.am      1 UNK        -0.4318 
      5 CA         29.9252   25.7133   -0.7350 C.3       1 UNK         0.0824 
      6 C6         31.1646   25.1451   -1.4785 C.3       12 UNK        -0.0944 
      7 S7         31.4340   23.3437   -1.3327 S.3       12 UNK        -0.2672 
      8 C8         32.6791   23.2407   -0.0072 C.3       12 UNK         0.0333 
      9 C9         32.1065   23.3730    1.4020 C.ar      12 UNK        -0.0807 
     10 C10        32.8036   24.1186    2.3578 C.ar      12 UNK        -0.0894 
     11 C11        32.3689   24.1633    3.6853 C.ar      12 UNK        -0.0804 
     12 C12        31.2159   23.4657    4.0545 C.ar      12 UNK        -0.0824 
     13 C13        30.5046   22.7149    3.1122 C.ar      12 UNK        -0.0762 
     14 C14        30.9522   22.6774    1.7872 C.ar      12 UNK        -0.0782 
     15 C15        29.3014   21.8815    3.5450 C.3       12 UNK         0.0230 
     16 S16        27.7017   22.6822    3.1936 S.3       12 UNK        -0.2608 
     17 C17        27.8235   24.1987    4.1968 C.3       12 UNK        -0.0989 
     18 CA         28.0743   25.4306    3.2854 C.3       5 UNK         0.0716 
     19 N          26.8696   25.8541    2.5579 N.am      5 UNK        -0.4135 
     20 C          25.7855   26.4439    3.0855 C.2       4 UNK         0.5031 
     21 O          25.6322   26.6642    4.2878 O.2       4 UNK        -0.5229 
     22 CA         24.6734   26.8691    2.1131 C.3       4 UNK         0.0329 
     23 CB         24.9278   28.2845    1.5695 C.3       4 UNK        -0.2001 
     24 N          24.4864   25.9414    0.9973 N.am      4 UNK        -0.4303 
     25 C          23.9229   24.7317    1.0949 C.2       3 UNK         0.5044 
     26 O          23.5268   24.2479    2.1559 O.2       3 UNK        -0.5152 
     27 CA         23.7358   23.9280   -0.2062 C.3       3 UNK         0.0319 
     28 CB         22.5355   24.4579   -1.0155 C.3       3 UNK        -0.2001 
     29 N          24.9351   23.8040   -1.0472 N.am      3 UNK        -0.4354 
     30 C          25.6174   24.7598   -1.6928 C.2       2 UNK         0.4964 
     31 O          25.3393   25.9610   -1.6631 O.2       2 UNK        -0.5047 
     32 CA         26.8210   24.2873   -2.5229 C.3       2 UNK         0.0288 
     33 CB         26.5636   24.4951   -4.0245 C.3       2 UNK        -0.2113 
     34 N          28.0447   24.9894   -2.1394 N.am      2 UNK        -0.4145 
     35 C          28.6440   24.8755   -0.9448 C.2       1 UNK         0.5006 
     36 O          28.2180   24.1704   -0.0298 O.2       1 UNK        -0.5103 
     37 C          28.7510   26.6165    4.0083 C.2       5 UNK         0.5055 
     38 O          29.0655   26.5327    5.1971 O.2       5 UNK        -0.5220 
     39 N          28.9479   27.7079    3.2620 N.am      6 UNK        -0.4450 
     40 CA         29.6037   28.9326    3.7018 C.3       6 UNK         0.0367 
     41 CB         28.5452   29.9473    4.1729 C.3       6 UNK        -0.1929 
     42 C          30.4594   29.4486    2.5389 C.2       6 UNK         0.5070 
     43 O          30.1614   30.5005    1.9676 O.2       6 UNK        -0.5237 
     44 N          31.4727   28.6566    2.1602 N.am      7 UNK        -0.4739 
     45 CA         32.3737   28.8992    1.0303 C.3       7 UNK         0.0276 
     46 CB         33.3927   27.7523    0.9391 C.3       7 UNK        -0.1927 
     47 C          33.0774   30.2620    1.1398 C.2       7 UNK         0.5013 
     48 O          33.8210   30.4864    2.0959 O.2       7 UNK        -0.5193 
     49 N          32.7751   31.1625    0.1918 N.am      8 UNK        -0.4253 
     50 CA         33.2154   32.5651    0.1350 C.3       8 UNK         0.0242 
     51 CB         34.7269   32.6428   -0.1709 C.3       8 UNK        -0.2000 
     52 C          32.8208   33.3919    1.3802 C.2       8 UNK         0.4948 
     53 O          33.5277   34.3390    1.7281 O.2       8 UNK        -0.5275 
     54 N          31.7160   33.0031    2.0392 N.am      9 UNK        -0.4246 
     55 CA         31.2069   33.5163    3.3179 C.3       9 UNK         0.0261 
     56 CB         30.8295   35.0103    3.2199 C.3       9 UNK        -0.1959 
     57 C          32.1177   33.2086    4.5269 C.2       9 UNK         0.5033 
     58 O          31.9334   33.8121    5.5860 O.2       9 UNK        -0.5390 
     59 N          33.0552   32.2659    4.3700 N.am      10 UNK        -0.4215 
     60 CA         33.8959   31.7081    5.4267 C.3       10 UNK         0.0240 
     61 CB         35.3633   31.7654    4.9598 C.3       10 UNK        -0.1982 
     62 C          33.4417   30.2665    5.7164 C.2       10 UNK         0.4970 
     63 O          32.4110   29.8357    5.2021 O.2       10 UNK        -0.4916 
     64 N          34.2082   29.5593    6.5540 N.am      11 UNK        -0.4279 
     65 CA         34.0620   28.1355    6.9118 C.3       11 UNK         0.1003 
     66 C          32.7802   27.7259    7.7013 C.2       11 UNK         0.5709 
     67 N          31.9059   28.6497    8.0800 N.am      11 UNK        -0.7358 
     68 O          32.6085   26.5551    8.0330 O.2       11 UNK        -0.4999 
     69 C69        34.4519   27.1738    5.7455 C.3       12 UNK        -0.0954 
     70 S70        33.1297   26.6924    4.5711 S.3       12 UNK        -0.2268 
     71 C71        33.2017   24.8835    4.7359 C.3       12 UNK         0.0203 
     72 H72        28.8367   30.0901   -0.3112 H         1 UNK         0.0888 
     73 H73        29.3139   29.5145   -1.9096 H         1 UNK         0.0888 
     74 H74        27.6221   29.4349   -1.4091 H         1 UNK         0.0888 
     75 H75        30.1591   27.4295   -1.9497 H         1 UNK         0.3017 
     76 H76        30.1468   25.6895    0.3348 H         1 UNK         0.0873 
     77 H77        32.0629   25.6701   -1.1520 H         1 UNK         0.0745 
     78 H78        31.0798   25.3550   -2.5462 H         1 UNK         0.0745 
     79 H79        33.4558   23.9857   -0.1872 H         1 UNK         0.0705 
     80 H80        33.1702   22.2695   -0.0787 H         1 UNK         0.0705 
     81 H81        33.7137   24.6341    2.0823 H         1 UNK         0.1334 
     82 H82        30.8945   23.4774    5.0870 H         1 UNK         0.1417 
     83 H83        30.4161   22.0797    1.0624 H         1 UNK         0.1562 
     84 H84        29.3594   21.6539    4.6106 H         1 UNK         0.0748 
     85 H85        29.3264   20.9182    3.0335 H         1 UNK         0.0748 
     86 H86        28.6159   24.0651    4.9329 H         1 UNK         0.0940 
     87 H87        26.9084   24.3187    4.7781 H         1 UNK         0.0940 
     88 H88        28.7965   25.1374    2.5214 H         1 UNK         0.0703 
     89 H89        26.9154   25.7473    1.5535 H         1 UNK         0.3081 
     90 H90        23.7420   26.8972    2.6831 H         1 UNK         0.0719 
     91 H91        25.7941   28.3168    0.9096 H         1 UNK         0.0809 
     92 H92        24.0688   28.6513    1.0077 H         1 UNK         0.0809 
     93 H93        25.1093   28.9902    2.3815 H         1 UNK         0.0809 
     94 H94        24.7973   26.2382    0.0744 H         1 UNK         0.2990 
     95 H95        23.4921   22.9083    0.0969 H         1 UNK         0.0690 
     96 H96        22.3375   23.8321   -1.8858 H         1 UNK         0.0788 
     97 H97        22.6949   25.4780   -1.3663 H         1 UNK         0.0788 
     98 H98        21.6294   24.4634   -0.4081 H         1 UNK         0.0788 
     99 H99        25.2934   22.8611   -1.1159 H         1 UNK         0.2993 
    100 H100       26.9814   23.2210   -2.3480 H         1 UNK         0.0949 
    101 H101       27.3905   24.1166   -4.6258 H         1 UNK         0.0767 
    102 H102       25.6641   23.9659   -4.3423 H         1 UNK         0.0767 
    103 H103       26.4244   25.5493   -4.2687 H         1 UNK         0.0767 
    104 H104       28.4343   25.6251   -2.8187 H         1 UNK         0.3013 
    105 H105       28.6672   27.6869    2.2788 H         1 UNK         0.3121 
    106 H106       30.2713   28.7112    4.5354 H         1 UNK         0.0774 
    107 H107       29.0170   30.8734    4.5028 H         1 UNK         0.0815 
    108 H108       27.8446   30.1981    3.3754 H         1 UNK         0.0815 
    109 H109       27.9708   29.5567    5.0130 H         1 UNK         0.0815 
    110 H110       31.6780   27.8480    2.7314 H         1 UNK         0.2987 
    111 H111       31.7681   28.8847    0.1229 H         1 UNK         0.0949 
    112 H112       34.0347   27.8689    0.0652 H         1 UNK         0.0806 
    113 H113       34.0401   27.7189    1.8164 H         1 UNK         0.0806 
    114 H114       32.8968   26.7859    0.8533 H         1 UNK         0.0806 
    115 H115       32.1264   30.8883   -0.5330 H         1 UNK         0.3010 
    116 H116       32.6852   33.0188   -0.7037 H         1 UNK         0.0829 
    117 H117       34.9830   32.0649   -1.0588 H         1 UNK         0.0813 
    118 H118       35.0381   33.6717   -0.3560 H         1 UNK         0.0813 
    119 H119       35.3264   32.2668    0.6590 H         1 UNK         0.0813 
    120 H120       31.2203   32.1835    1.6967 H         1 UNK         0.3038 
    121 H121       30.2851   32.9627    3.5023 H         1 UNK         0.0769 
    122 H122       30.2900   35.3357    4.1101 H         1 UNK         0.0811 
    123 H123       30.1826   35.2014    2.3638 H         1 UNK         0.0811 
    124 H124       31.7093   35.6471    3.1267 H         1 UNK         0.0811 
    125 H125       33.1096   31.7684    3.4854 H         1 UNK         0.3204 
    126 H126       33.7935   32.2857    6.3473 H         1 UNK         0.0748 
    127 H127       36.0500   31.4760    5.7555 H         1 UNK         0.0771 
    128 H128       35.5435   31.1021    4.1126 H         1 UNK         0.0771 
    129 H129       35.6394   32.7748    4.6535 H         1 UNK         0.0771 
    130 H130       35.0061   30.0184    6.9680 H         1 UNK         0.2980 
    131 H131       34.8462   28.0078    7.6589 H         1 UNK         0.0545 
    132 H132       31.0919   28.3728    8.6049 H         1 UNK         0.3459 
    133 H133       32.0245   29.6073    7.7927 H         1 UNK         0.3459 
    134 H134       35.2681   27.6057    5.1645 H         1 UNK         0.0616 
    135 H135       34.8710   26.2656    6.1811 H         1 UNK         0.0616 
    136 H136       32.8801   24.6096    5.7421 H         1 UNK         0.0634 
    137 H137       34.2379   24.5548    4.6426 H         1 UNK         0.0634 
@<TRIPOS>BOND
     1    1    2 1    
     2    1   72 1    
     3    1   73 1    
     4    1   74 1    
     5    2    3 2    
     6    2    4 am   BACKBONE|DICT|INTERRES
     7    4    5 1    
     8    4   75 1    
     9    5    6 1    
    10    5   35 1    
    11    5   76 1    
    12    6    7 1    
    13    6   77 1    
    14    6   78 1    
    15    7    8 1    
    16    8    9 1    
    17    8   79 1    
    18    8   80 1    
    19    9   10 ar   
    20    9   14 ar   
    21   10   11 ar   
    22   10   81 1    
    23   11   12 ar   
    24   11   71 1    
    25   12   13 ar   
    26   12   82 1    
    27   13   14 ar   
    28   13   15 1    
    29   14   83 1    
    30   15   16 1    
    31   15   84 1    
    32   15   85 1    
    33   16   17 1    
    34   17   18 1    
    35   17   86 1    
    36   17   87 1    
    37   18   19 1    
    38   18   37 1    
    39   18   88 1    
    40   19   20 am   BACKBONE|DICT|INTERRES
    41   19   89 1    
    42   20   21 2    
    43   20   22 1    
    44   22   23 1    
    45   22   24 1    
    46   22   90 1    
    47   23   91 1    
    48   23   92 1    
    49   23   93 1    
    50   24   25 am   BACKBONE|DICT|INTERRES
    51   24   94 1    
    52   25   26 2    
    53   25   27 1    
    54   27   28 1    
    55   27   29 1    
    56   27   95 1    
    57   28   96 1    
    58   28   97 1    
    59   28   98 1    
    60   29   30 am   BACKBONE|DICT|INTERRES
    61   29   99 1    
    62   30   31 2    
    63   30   32 1    
    64   32   33 1    
    65   32   34 1    
    66   32  100 1    
    67   33  101 1    
    68   33  102 1    
    69   33  103 1    
    70   34   35 am   BACKBONE|DICT|INTERRES
    71   34  104 1    
    72   35   36 2    
    73   37   38 2    
    74   37   39 am   BACKBONE|DICT|INTERRES
    75   39   40 1    
    76   39  105 1    
    77   40   41 1    
    78   40   42 1    
    79   40  106 1    
    80   41  107 1    
    81   41  108 1    
    82   41  109 1    
    83   42   43 2    
    84   42   44 am   BACKBONE|DICT|INTERRES
    85   44   45 1    
    86   44  110 1    
    87   45   46 1    
    88   45   47 1    
    89   45  111 1    
    90   46  112 1    
    91   46  113 1    
    92   46  114 1    
    93   47   48 2    
    94   47   49 am   BACKBONE|DICT|INTERRES
    95   49   50 1    
    96   49  115 1    
    97   50   51 1    
    98   50   52 1    
    99   50  116 1    
   100   51  117 1    
   101   51  118 1    
   102   51  119 1    
   103   52   53 2    
   104   52   54 am   BACKBONE|DICT|INTERRES
   105   54   55 1    
   106   54  120 1    
   107   55   56 1    
   108   55   57 1    
   109   55  121 1    
   110   56  122 1    
   111   56  123 1    
   112   56  124 1    
   113   57   58 2    
   114   57   59 am   BACKBONE|DICT|INTERRES
   115   59   60 1    
   116   59  125 1    
   117   60   61 1    
   118   60   62 1    
   119   60  126 1    
   120   61  127 1    
   121   61  128 1    
   122   61  129 1    
   123   62   63 2    
   124   62   64 am   BACKBONE|DICT|INTERRES
   125   64   65 1    
   126   64  130 1    
   127   65   66 1    
   128   65   69 1    
   129   65  131 1    
   130   66   67 am   BACKBONE|DICT|INTERRES
   131   66   68 2    
   132   67  132 1    
   133   67  133 1    
   134   69   70 1    
   135   69  134 1    
   136   69  135 1    
   137   70   71 1    
   138   71  136 1    
   139   71  137 1    
@<TRIPOS>SUBSTRUCTURE
     1 UNK         1 GROUP             0       ****    0 ROOT    
