@<TRIPOS>MOLECULE
3R136
137   139    1
SMALL
USER_CHARGES


@<TRIPOS>ATOM
      1 CA         29.9485   19.8449   -1.8340 C.3       0 UNK        -0.1979 
      2 C          30.0741   21.1451   -2.6146 C.2       0 UNK         0.4864 
      3 O          30.0385   21.1260   -3.8463 O.2       0 UNK        -0.5359 
      4 N          30.2289   22.2709   -1.9075 N.am      1 UNK        -0.4318 
      5 CA         30.2794   23.6199   -2.4770 C.3       1 UNK         0.0824 
      6 C6         31.0038   24.6124   -1.5293 C.3       12 UNK        -0.0944 
      7 S7         30.2606   24.7443    0.1356 S.3       12 UNK        -0.2672 
      8 C8         31.5891   24.0558    1.1671 C.3       12 UNK         0.0333 
      9 C9         31.2174   24.1040    2.6400 C.ar      12 UNK        -0.0807 
     10 C10        31.8460   25.0082    3.5020 C.ar      12 UNK        -0.0894 
     11 C11        31.5114   25.0429    4.8591 C.ar      12 UNK        -0.0804 
     12 C12        30.5330   24.1733    5.3506 C.ar      12 UNK        -0.0824 
     13 C13        29.8882   23.2746    4.4937 C.ar      12 UNK        -0.0762 
     14 C14        30.2435   23.2366    3.1428 C.ar      12 UNK        -0.0782 
     15 C15        28.7908   22.3585    5.0160 C.3       12 UNK         0.0230 
     16 S16        27.1354   22.9580    4.5418 S.3       12 UNK        -0.2608 
     17 C17        27.0650   24.5502    5.4298 C.3       12 UNK        -0.0989 
     18 CA         27.3976   25.7564    4.5057 C.3       5 UNK         0.0716 
     19 N          26.4232   25.9261    3.4186 N.am      5 UNK        -0.4135 
     20 C          25.1529   26.3430    3.5252 C.2       4 UNK         0.5031 
     21 O          24.6265   26.6742    4.5891 O.2       4 UNK        -0.5229 
     22 CA         24.3360   26.4125    2.2165 C.3       4 UNK         0.0329 
     23 CB         22.9835   27.1278    2.4001 C.3       4 UNK        -0.2001 
     24 N          25.0702   27.0658    1.1270 N.am      4 UNK        -0.4303 
     25 C          25.9881   26.4733    0.3550 C.2       3 UNK         0.5044 
     26 O          26.3469   25.3027    0.4978 O.2       3 UNK        -0.5152 
     27 CA         26.6620   27.3499   -0.7026 C.3       3 UNK         0.0319 
     28 CB         27.9030   28.0427   -0.1125 C.3       3 UNK        -0.2001 
     29 N          27.0503   26.5079   -1.8289 N.am      3 UNK        -0.4354 
     30 C          27.1897   26.9132   -3.0956 C.2       2 UNK         0.4964 
     31 O          27.0298   28.0815   -3.4545 O.2       2 UNK        -0.5047 
     32 CA         27.5929   25.8378   -4.1263 C.3       2 UNK         0.0288 
     33 CB         27.7913   26.4129   -5.5422 C.3       2 UNK        -0.2113 
     34 N          28.8188   25.1438   -3.7225 N.am      2 UNK        -0.4145 
     35 C          28.8701   24.1193   -2.8612 C.2       1 UNK         0.5006 
     36 O          27.8652   23.6165   -2.3491 O.2       1 UNK        -0.5103 
     37 C          27.6285   27.0630    5.2991 C.2       5 UNK         0.5055 
     38 O          27.5619   27.0557    6.5310 O.2       5 UNK        -0.5220 
     39 N          27.8771   28.1677    4.5813 N.am      6 UNK        -0.4450 
     40 CA         28.1057   29.4841    5.1782 C.3       6 UNK         0.0367 
     41 CB         26.7693   30.1465    5.5677 C.3       6 UNK        -0.1929 
     42 C          28.9262   30.3983    4.2639 C.2       6 UNK         0.5070 
     43 O          29.9237   30.9557    4.7147 O.2       6 UNK        -0.5237 
     44 N          28.4784   30.5787    3.0125 N.am      7 UNK        -0.4739 
     45 CA         29.0343   31.5894    2.1034 C.3       7 UNK         0.0276 
     46 CB         28.0396   31.8635    0.9635 C.3       7 UNK        -0.1927 
     47 C          30.4230   31.2513    1.5350 C.2       7 UNK         0.5013 
     48 O          31.2035   32.1736    1.2931 O.2       7 UNK        -0.5193 
     49 N          30.7022   29.9570    1.3197 N.am      8 UNK        -0.4253 
     50 CA         31.9244   29.4322    0.6978 C.3       8 UNK         0.0242 
     51 CB         31.8056   27.9070    0.5565 C.3       8 UNK        -0.2000 
     52 C          33.1910   29.8233    1.4759 C.2       8 UNK         0.4948 
     53 O          33.4695   29.2314    2.5199 O.2       8 UNK        -0.5275 
     54 N          33.8859   30.8640    0.9881 N.am      9 UNK        -0.4246 
     55 CA         35.0287   31.5448    1.6180 C.3       9 UNK         0.0261 
     56 CB         36.2771   30.6374    1.5888 C.3       9 UNK        -0.1959 
     57 C          34.7165   32.0701    3.0369 C.2       9 UNK         0.5033 
     58 O          35.6121   32.1158    3.8836 O.2       9 UNK        -0.5390 
     59 N          33.4345   32.3852    3.2915 N.am      10 UNK        -0.4215 
     60 CA         32.8323   32.6842    4.5988 C.3       10 UNK         0.0240 
     61 CB         33.3168   34.0578    5.1099 C.3       10 UNK        -0.1982 
     62 C          33.0245   31.5647    5.6521 C.2       10 UNK         0.4970 
     63 O          32.9396   31.8468    6.8492 O.2       10 UNK        -0.4916 
     64 N          33.3225   30.3352    5.2002 N.am      11 UNK        -0.4279 
     65 CA         33.7986   29.1993    6.0038 C.3       11 UNK         0.1003 
     66 C          35.1161   29.4794    6.7941 C.2       11 UNK         0.5709 
     67 N          35.9577   30.4126    6.3597 N.am      11 UNK        -0.7358 
     68 O          35.4056   28.8240    7.7926 O.2       11 UNK        -0.4999 
     69 C69        32.6691   28.5402    6.8474 C.3       12 UNK        -0.0954 
     70 S70        31.4738   27.6558    5.7893 S.3       12 UNK        -0.2268 
     71 C71        32.2288   26.0008    5.7968 C.3       12 UNK         0.0203 
     72 H72        28.9913   19.3702   -2.0484 H         1 UNK         0.0888 
     73 H73        30.7430   19.1564   -2.1207 H         1 UNK         0.0888 
     74 H74        30.0127   20.0074   -0.7582 H         1 UNK         0.0888 
     75 H75        30.1968   22.2369   -0.8991 H         1 UNK         0.3017 
     76 H76        30.8602   23.5680   -3.4009 H         1 UNK         0.0873 
     77 H77        31.0326   25.6124   -1.9658 H         1 UNK         0.0745 
     78 H78        32.0494   24.3157   -1.4339 H         1 UNK         0.0745 
     79 H79        32.5096   24.6134    0.9864 H         1 UNK         0.0705 
     80 H80        31.7855   23.0240    0.8722 H         1 UNK         0.0705 
     81 H81        32.6004   25.6835    3.1210 H         1 UNK         0.1334 
     82 H82        30.2675   24.2044    6.3986 H         1 UNK         0.1417 
     83 H83        29.7439   22.5467    2.4761 H         1 UNK         0.1562 
     84 H84        28.8472   22.2620    6.1015 H         1 UNK         0.0748 
     85 H85        28.9325   21.3544    4.6135 H         1 UNK         0.0748 
     86 H86        27.7507   24.5018    6.2773 H         1 UNK         0.0940 
     87 H87        26.0703   24.6637    5.8641 H         1 UNK         0.0940 
     88 H88        28.3501   25.5521    4.0160 H         1 UNK         0.0703 
     89 H89        26.7316   25.6325    2.4976 H         1 UNK         0.3081 
     90 H90        24.1231   25.3811    1.9265 H         1 UNK         0.0719 
     91 H91        23.1138   28.1627    2.7192 H         1 UNK         0.0809 
     92 H92        22.4067   27.1308    1.4751 H         1 UNK         0.0809 
     93 H93        22.3744   26.6278    3.1546 H         1 UNK         0.0809 
     94 H94        24.8599   28.0414    0.9701 H         1 UNK         0.2990 
     95 H95        25.9456   28.1017   -1.0412 H         1 UNK         0.0690 
     96 H96        28.3869   28.6888   -0.8453 H         1 UNK         0.0788 
     97 H97        28.6385   27.3144    0.2298 H         1 UNK         0.0788 
     98 H98        27.6337   28.6605    0.7433 H         1 UNK         0.0788 
     99 H99        27.1710   25.5235   -1.6047 H         1 UNK         0.2993 
    100 H100       26.7715   25.1192   -4.1750 H         1 UNK         0.0949 
    101 H101       28.0345   25.6276   -6.2583 H         1 UNK         0.0767 
    102 H102       26.8824   26.9008   -5.8972 H         1 UNK         0.0767 
    103 H103       28.5921   27.1531   -5.5703 H         1 UNK         0.0767 
    104 H104       29.6838   25.5287   -4.0745 H         1 UNK         0.3013 
    105 H105       27.9675   28.0924    3.5794 H         1 UNK         0.3121 
    106 H106       28.6968   29.3526    6.0880 H         1 UNK         0.0774 
    107 H107       26.9311   31.1476    5.9697 H         1 UNK         0.0815 
    108 H108       26.0976   30.2395    4.7138 H         1 UNK         0.0815 
    109 H109       26.2510   29.5722    6.3356 H         1 UNK         0.0815 
    110 H110       27.6143   30.1401    2.7316 H         1 UNK         0.2987 
    111 H111       29.1454   32.5177    2.6693 H         1 UNK         0.0949 
    112 H112       28.4039   32.6629    0.3164 H         1 UNK         0.0806 
    113 H113       27.8834   30.9881    0.3342 H         1 UNK         0.0806 
    114 H114       27.0701   32.1808    1.3481 H         1 UNK         0.0806 
    115 H115       30.0140   29.2767    1.6012 H         1 UNK         0.3010 
    116 H116       31.9934   29.8532   -0.3074 H         1 UNK         0.0829 
    117 H117       31.0074   27.6397   -0.1347 H         1 UNK         0.0813 
    118 H118       32.7264   27.4739    0.1636 H         1 UNK         0.0813 
    119 H119       31.6017   27.4248    1.5134 H         1 UNK         0.0813 
    120 H120       33.5324   31.3082    0.1509 H         1 UNK         0.3038 
    121 H121       35.2404   32.4248    1.0090 H         1 UNK         0.0769 
    122 H122       37.1614   31.1749    1.9335 H         1 UNK         0.0811 
    123 H123       36.4880   30.2841    0.5796 H         1 UNK         0.0811 
    124 H124       36.1565   29.7647    2.2318 H         1 UNK         0.0811 
    125 H125       32.7722   32.3072    2.5233 H         1 UNK         0.3204 
    126 H126       31.7592   32.7606    4.4247 H         1 UNK         0.0748 
    127 H127       32.7674   34.3612    6.0019 H         1 UNK         0.0771 
    128 H128       34.3757   34.0413    5.3701 H         1 UNK         0.0771 
    129 H129       33.1671   34.8351    4.3606 H         1 UNK         0.0771 
    130 H130       33.3445   30.1700    4.1982 H         1 UNK         0.2980 
    131 H131       34.1158   28.4594    5.2684 H         1 UNK         0.0545 
    132 H132       35.7522   30.9580    5.5285 H         1 UNK         0.3459 
    133 H133       36.8110   30.5786    6.8685 H         1 UNK         0.3459 
    134 H134       33.0690   27.8264    7.5691 H         1 UNK         0.0616 
    135 H135       32.1353   29.2890    7.4338 H         1 UNK         0.0616 
    136 H136       33.2769   26.0806    5.5042 H         1 UNK         0.0634 
    137 H137       32.2227   25.6080    6.8148 H         1 UNK         0.0634 
@<TRIPOS>BOND
     1    1    2 1    
     2    1   72 1    
     3    1   73 1    
     4    1   74 1    
     5    2    3 2    
     6    2    4 am   BACKBONE|DICT|INTERRES
     7    4    5 1    
     8    4   75 1    
     9    5    6 1    
    10    5   35 1    
    11    5   76 1    
    12    6    7 1    
    13    6   77 1    
    14    6   78 1    
    15    7    8 1    
    16    8    9 1    
    17    8   79 1    
    18    8   80 1    
    19    9   10 ar   
    20    9   14 ar   
    21   10   11 ar   
    22   10   81 1    
    23   11   12 ar   
    24   11   71 1    
    25   12   13 ar   
    26   12   82 1    
    27   13   14 ar   
    28   13   15 1    
    29   14   83 1    
    30   15   16 1    
    31   15   84 1    
    32   15   85 1    
    33   16   17 1    
    34   17   18 1    
    35   17   86 1    
    36   17   87 1    
    37   18   19 1    
    38   18   37 1    
    39   18   88 1    
    40   19   20 am   BACKBONE|DICT|INTERRES
    41   19   89 1    
    42   20   21 2    
    43   20   22 1    
    44   22   23 1    
    45   22   24 1    
    46   22   90 1    
    47   23   91 1    
    48   23   92 1    
    49   23   93 1    
    50   24   25 am   BACKBONE|DICT|INTERRES
    51   24   94 1    
    52   25   26 2    
    53   25   27 1    
    54   27   28 1    
    55   27   29 1    
    56   27   95 1    
    57   28   96 1    
    58   28   97 1    
    59   28   98 1    
    60   29   30 am   BACKBONE|DICT|INTERRES
    61   29   99 1    
    62   30   31 2    
    63   30   32 1    
    64   32   33 1    
    65   32   34 1    
    66   32  100 1    
    67   33  101 1    
    68   33  102 1    
    69   33  103 1    
    70   34   35 am   BACKBONE|DICT|INTERRES
    71   34  104 1    
    72   35   36 2    
    73   37   38 2    
    74   37   39 am   BACKBONE|DICT|INTERRES
    75   39   40 1    
    76   39  105 1    
    77   40   41 1    
    78   40   42 1    
    79   40  106 1    
    80   41  107 1    
    81   41  108 1    
    82   41  109 1    
    83   42   43 2    
    84   42   44 am   BACKBONE|DICT|INTERRES
    85   44   45 1    
    86   44  110 1    
    87   45   46 1    
    88   45   47 1    
    89   45  111 1    
    90   46  112 1    
    91   46  113 1    
    92   46  114 1    
    93   47   48 2    
    94   47   49 am   BACKBONE|DICT|INTERRES
    95   49   50 1    
    96   49  115 1    
    97   50   51 1    
    98   50   52 1    
    99   50  116 1    
   100   51  117 1    
   101   51  118 1    
   102   51  119 1    
   103   52   53 2    
   104   52   54 am   BACKBONE|DICT|INTERRES
   105   54   55 1    
   106   54  120 1    
   107   55   56 1    
   108   55   57 1    
   109   55  121 1    
   110   56  122 1    
   111   56  123 1    
   112   56  124 1    
   113   57   58 2    
   114   57   59 am   BACKBONE|DICT|INTERRES
   115   59   60 1    
   116   59  125 1    
   117   60   61 1    
   118   60   62 1    
   119   60  126 1    
   120   61  127 1    
   121   61  128 1    
   122   61  129 1    
   123   62   63 2    
   124   62   64 am   BACKBONE|DICT|INTERRES
   125   64   65 1    
   126   64  130 1    
   127   65   66 1    
   128   65   69 1    
   129   65  131 1    
   130   66   67 am   BACKBONE|DICT|INTERRES
   131   66   68 2    
   132   67  132 1    
   133   67  133 1    
   134   69   70 1    
   135   69  134 1    
   136   69  135 1    
   137   70   71 1    
   138   71  136 1    
   139   71  137 1    
@<TRIPOS>SUBSTRUCTURE
     1 UNK         1 GROUP             0       ****    0 ROOT    
