@<TRIPOS>MOLECULE
3R136
137   139    1
SMALL
USER_CHARGES


@<TRIPOS>ATOM
      1 CA         30.1781   20.9682   -2.6179 C.3       0 UNK        -0.1979 
      2 C          29.2605   21.6545   -1.6174 C.2       0 UNK         0.4864 
      3 O          28.3860   22.4187   -2.0243 O.2       0 UNK        -0.5359 
      4 N          29.4576   21.3829   -0.3195 N.am      1 UNK        -0.4318 
      5 CA         28.6905   21.9225    0.8121 C.3       1 UNK         0.0824 
      6 C6         29.1942   21.3433    2.1565 C.3       12 UNK        -0.0944 
      7 S7         30.9247   21.7970    2.5106 S.3       12 UNK        -0.2672 
      8 C8         30.7479   22.7836    4.0309 C.3       12 UNK         0.0333 
      9 C9         30.2270   24.1859    3.7495 C.ar      12 UNK        -0.0807 
     10 C10        31.1182   25.1932    3.3647 C.ar      12 UNK        -0.0894 
     11 C11        30.6621   26.4953    3.1446 C.ar      12 UNK        -0.0804 
     12 C12        29.3093   26.7881    3.3313 C.ar      12 UNK        -0.0824 
     13 C13        28.4002   25.7861    3.6746 C.ar      12 UNK        -0.0762 
     14 C14        28.8665   24.4850    3.8915 C.ar      12 UNK        -0.0782 
     15 C15        26.9204   26.1172    3.8181 C.3       12 UNK         0.0230 
     16 S16        26.0677   26.1535    2.2047 S.3       12 UNK        -0.2608 
     17 C17        26.4883   27.8095    1.5519 C.3       12 UNK        -0.0989 
     18 CA         27.5875   27.7924    0.4500 C.3       5 UNK         0.0716 
     19 N          27.1174   27.2483   -0.8222 N.am      5 UNK        -0.4135 
     20 C          27.2189   25.9763   -1.2123 C.2       4 UNK         0.5031 
     21 O          27.6679   25.0708   -0.5054 O.2       4 UNK        -0.5229 
     22 CA         26.7674   25.6698   -2.6465 C.3       4 UNK         0.0329 
     23 CB         27.9425   25.7998   -3.6291 C.3       4 UNK        -0.2001 
     24 N          26.2681   24.3019   -2.6724 N.am      4 UNK        -0.4303 
     25 C          25.0980   23.8995   -3.1796 C.2       3 UNK         0.5044 
     26 O          24.3668   24.6028   -3.8781 O.2       3 UNK        -0.5152 
     27 CA         24.6382   22.4855   -2.7812 C.3       3 UNK         0.0319 
     28 CB         25.3117   21.4132   -3.6524 C.3       3 UNK        -0.2001 
     29 N          24.9094   22.2206   -1.3653 N.am      3 UNK        -0.4354 
     30 C          24.2946   22.8372   -0.3452 C.2       2 UNK         0.4964 
     31 O          23.3063   23.5583   -0.4861 O.2       2 UNK        -0.5047 
     32 CA         24.8902   22.6694    1.0644 C.3       2 UNK         0.0288 
     33 CB         24.2565   21.4797    1.8130 C.3       2 UNK        -0.2113 
     34 N          26.3607   22.6300    1.0945 N.am      2 UNK        -0.4145 
     35 C          27.1779   21.6543    0.6741 C.2       1 UNK         0.5006 
     36 O          26.7871   20.5825    0.2030 O.2       1 UNK        -0.5103 
     37 C          28.1294   29.2068    0.1691 C.2       5 UNK         0.5055 
     38 O          27.8681   29.7708   -0.8983 O.2       5 UNK        -0.5220 
     39 N          28.8647   29.7561    1.1387 N.am      6 UNK        -0.4450 
     40 CA         29.4315   31.1005    1.1474 C.3       6 UNK         0.0367 
     41 CB         30.8626   31.0600    0.5744 C.3       6 UNK        -0.1929 
     42 C          29.4045   31.6115    2.5965 C.2       6 UNK         0.5070 
     43 O          28.8869   30.9194    3.4790 O.2       6 UNK        -0.5237 
     44 N          29.9584   32.8091    2.8232 N.am      7 UNK        -0.4739 
     45 CA         30.1510   33.3853    4.1563 C.3       7 UNK         0.0276 
     46 CB         30.6059   34.8469    4.0150 C.3       7 UNK        -0.1927 
     47 C          31.1863   32.5822    4.9603 C.2       7 UNK         0.5013 
     48 O          32.2235   32.2114    4.4064 O.2       7 UNK        -0.5193 
     49 N          30.9162   32.3713    6.2558 N.am      8 UNK        -0.4253 
     50 CA         31.7151   31.5401    7.1684 C.3       8 UNK         0.0242 
     51 CB         31.0449   31.5213    8.5519 C.3       8 UNK        -0.2000 
     52 C          33.1985   31.9365    7.2972 C.2       8 UNK         0.4948 
     53 O          34.0228   31.0759    7.6036 O.2       8 UNK        -0.5275 
     54 N          33.5155   33.2133    7.0411 N.am      9 UNK        -0.4246 
     55 CA         34.8812   33.7364    6.9721 C.3       9 UNK         0.0261 
     56 CB         34.8338   35.2727    7.0119 C.3       9 UNK        -0.1959 
     57 C          35.6634   33.2559    5.7335 C.2       9 UNK         0.5033 
     58 O          36.8930   33.2070    5.7928 O.2       9 UNK        -0.5390 
     59 N          34.9595   32.9262    4.6404 N.am      10 UNK        -0.4215 
     60 CA         35.5456   32.4027    3.4049 C.3       10 UNK         0.0240 
     61 CB         34.7143   32.8774    2.2003 C.3       10 UNK        -0.1982 
     62 C          35.6372   30.8690    3.4229 C.2       10 UNK         0.4970 
     63 O          36.5657   30.3206    2.8275 O.2       10 UNK        -0.4916 
     64 N          34.6776   30.2079    4.0842 N.am      11 UNK        -0.4279 
     65 CA         34.6089   28.7461    4.2361 C.3       11 UNK         0.1003 
     66 C          35.7985   28.1504    5.0397 C.2       11 UNK         0.5709 
     67 N          36.1660   26.9054    4.7660 N.am      11 UNK        -0.7358 
     68 O          36.3665   28.7842    5.9271 O.2       11 UNK        -0.4999 
     69 C69        33.2550   28.2908    4.8425 C.3       12 UNK        -0.0954 
     70 S70        31.8273   28.9002    3.8901 S.3       12 UNK        -0.2268 
     71 C71        31.6104   27.5808    2.6599 C.3       12 UNK         0.0203 
     72 H72        30.7171   21.7130   -3.2027 H         1 UNK         0.0888 
     73 H73        30.9097   20.3260   -2.1280 H         1 UNK         0.0888 
     74 H74        29.5923   20.3556   -3.3026 H         1 UNK         0.0888 
     75 H75        30.1947   20.7434   -0.0611 H         1 UNK         0.3017 
     76 H76        28.8455   23.0039    0.8152 H         1 UNK         0.0873 
     77 H77        29.1246   20.2536    2.1518 H         1 UNK         0.0745 
     78 H78        28.5616   21.6740    2.9817 H         1 UNK         0.0745 
     79 H79        31.7236   22.8516    4.5147 H         1 UNK         0.0705 
     80 H80        30.1004   22.2635    4.7386 H         1 UNK         0.0705 
     81 H81        32.1658   24.9591    3.2326 H         1 UNK         0.1334 
     82 H82        28.9599   27.7994    3.1936 H         1 UNK         0.1417 
     83 H83        28.1714   23.7092    4.1814 H         1 UNK         0.1562 
     84 H84        26.7922   27.0703    4.3335 H         1 UNK         0.0748 
     85 H85        26.4333   25.3706    4.4471 H         1 UNK         0.0748 
     86 H86        26.7753   28.4435    2.3923 H         1 UNK         0.0940 
     87 H87        25.5740   28.2563    1.1570 H         1 UNK         0.0940 
     88 H88        28.4362   27.1953    0.7875 H         1 UNK         0.0703 
     89 H89        26.8232   27.9573   -1.4822 H         1 UNK         0.3081 
     90 H90        25.9769   26.3701   -2.9249 H         1 UNK         0.0719 
     91 H91        28.3465   26.8128   -3.6270 H         1 UNK         0.0809 
     92 H92        28.7564   25.1202   -3.3712 H         1 UNK         0.0809 
     93 H93        27.6306   25.5751   -4.6492 H         1 UNK         0.0809 
     94 H94        26.8316   23.6447   -2.1361 H         1 UNK         0.2990 
     95 H95        23.5593   22.4249   -2.9391 H         1 UNK         0.0690 
     96 H96        26.3951   21.4107   -3.5299 H         1 UNK         0.0788 
     97 H97        25.1037   21.5846   -4.7093 H         1 UNK         0.0788 
     98 H98        24.9451   20.4163   -3.4070 H         1 UNK         0.0788 
     99 H99        25.6970   21.6197   -1.1455 H         1 UNK         0.2993 
    100 H100       24.6189   23.5716    1.6146 H         1 UNK         0.0949 
    101 H101       24.4219   20.5330    1.2983 H         1 UNK         0.0767 
    102 H102       24.6557   21.3887    2.8232 H         1 UNK         0.0767 
    103 H103       23.1773   21.6113    1.9013 H         1 UNK         0.0767 
    104 H104       26.7916   23.5031    1.3742 H         1 UNK         0.3013 
    105 H105       28.9482   29.2933    2.0337 H         1 UNK         0.3121 
    106 H106       28.8110   31.7674    0.5449 H         1 UNK         0.0774 
    107 H107       31.2785   32.0624    0.4709 H         1 UNK         0.0815 
    108 H108       31.5381   30.4932    1.2162 H         1 UNK         0.0815 
    109 H109       30.8810   30.6042   -0.4155 H         1 UNK         0.0815 
    110 H110       30.3843   33.3031    2.0529 H         1 UNK         0.2987 
    111 H111       29.1930   33.3622    4.6805 H         1 UNK         0.0949 
    112 H112       29.8742   35.4394    3.4653 H         1 UNK         0.0806 
    113 H113       30.7299   35.3149    4.9925 H         1 UNK         0.0806 
    114 H114       31.5611   34.9243    3.4933 H         1 UNK         0.0806 
    115 H115       30.0515   32.7349    6.6303 H         1 UNK         0.3010 
    116 H116       31.6948   30.5244    6.7679 H         1 UNK         0.0829 
    117 H117       30.0310   31.1244    8.4980 H         1 UNK         0.0813 
    118 H118       31.5999   30.8888    9.2466 H         1 UNK         0.0813 
    119 H119       30.9943   32.5192    8.9895 H         1 UNK         0.0813 
    120 H120       32.7683   33.8526    6.8134 H         1 UNK         0.3038 
    121 H121       35.4219   33.3887    7.8553 H         1 UNK         0.0769 
    122 H122       35.8399   35.6941    6.9914 H         1 UNK         0.0811 
    123 H123       34.3531   35.6323    7.9219 H         1 UNK         0.0811 
    124 H124       34.2917   35.6832    6.1590 H         1 UNK         0.0811 
    125 H125       33.9430   32.9282    4.6818 H         1 UNK         0.3204 
    126 H126       36.5577   32.7964    3.2877 H         1 UNK         0.0748 
    127 H127       35.1659   32.5484    1.2635 H         1 UNK         0.0771 
    128 H128       33.6975   32.4838    2.2248 H         1 UNK         0.0771 
    129 H129       34.6517   33.9651    2.1656 H         1 UNK         0.0771 
    130 H130       33.9214   30.7331    4.5022 H         1 UNK         0.2980 
    131 H131       34.6728   28.3347    3.2269 H         1 UNK         0.0545 
    132 H132       36.9269   26.4959    5.2851 H         1 UNK         0.3459 
    133 H133       35.7051   26.3692    4.0478 H         1 UNK         0.3459 
    134 H134       33.1974   27.2023    4.9012 H         1 UNK         0.0616 
    135 H135       33.1572   28.6571    5.8660 H         1 UNK         0.0616 
    136 H136       31.2032   28.0191    1.7482 H         1 UNK         0.0634 
    137 H137       32.5811   27.1654    2.3859 H         1 UNK         0.0634 
@<TRIPOS>BOND
     1    1    2 1    
     2    1   72 1    
     3    1   73 1    
     4    1   74 1    
     5    2    3 2    
     6    2    4 am   BACKBONE|DICT|INTERRES
     7    4    5 1    
     8    4   75 1    
     9    5    6 1    
    10    5   35 1    
    11    5   76 1    
    12    6    7 1    
    13    6   77 1    
    14    6   78 1    
    15    7    8 1    
    16    8    9 1    
    17    8   79 1    
    18    8   80 1    
    19    9   10 ar   
    20    9   14 ar   
    21   10   11 ar   
    22   10   81 1    
    23   11   12 ar   
    24   11   71 1    
    25   12   13 ar   
    26   12   82 1    
    27   13   14 ar   
    28   13   15 1    
    29   14   83 1    
    30   15   16 1    
    31   15   84 1    
    32   15   85 1    
    33   16   17 1    
    34   17   18 1    
    35   17   86 1    
    36   17   87 1    
    37   18   19 1    
    38   18   37 1    
    39   18   88 1    
    40   19   20 am   BACKBONE|DICT|INTERRES
    41   19   89 1    
    42   20   21 2    
    43   20   22 1    
    44   22   23 1    
    45   22   24 1    
    46   22   90 1    
    47   23   91 1    
    48   23   92 1    
    49   23   93 1    
    50   24   25 am   BACKBONE|DICT|INTERRES
    51   24   94 1    
    52   25   26 2    
    53   25   27 1    
    54   27   28 1    
    55   27   29 1    
    56   27   95 1    
    57   28   96 1    
    58   28   97 1    
    59   28   98 1    
    60   29   30 am   BACKBONE|DICT|INTERRES
    61   29   99 1    
    62   30   31 2    
    63   30   32 1    
    64   32   33 1    
    65   32   34 1    
    66   32  100 1    
    67   33  101 1    
    68   33  102 1    
    69   33  103 1    
    70   34   35 am   BACKBONE|DICT|INTERRES
    71   34  104 1    
    72   35   36 2    
    73   37   38 2    
    74   37   39 am   BACKBONE|DICT|INTERRES
    75   39   40 1    
    76   39  105 1    
    77   40   41 1    
    78   40   42 1    
    79   40  106 1    
    80   41  107 1    
    81   41  108 1    
    82   41  109 1    
    83   42   43 2    
    84   42   44 am   BACKBONE|DICT|INTERRES
    85   44   45 1    
    86   44  110 1    
    87   45   46 1    
    88   45   47 1    
    89   45  111 1    
    90   46  112 1    
    91   46  113 1    
    92   46  114 1    
    93   47   48 2    
    94   47   49 am   BACKBONE|DICT|INTERRES
    95   49   50 1    
    96   49  115 1    
    97   50   51 1    
    98   50   52 1    
    99   50  116 1    
   100   51  117 1    
   101   51  118 1    
   102   51  119 1    
   103   52   53 2    
   104   52   54 am   BACKBONE|DICT|INTERRES
   105   54   55 1    
   106   54  120 1    
   107   55   56 1    
   108   55   57 1    
   109   55  121 1    
   110   56  122 1    
   111   56  123 1    
   112   56  124 1    
   113   57   58 2    
   114   57   59 am   BACKBONE|DICT|INTERRES
   115   59   60 1    
   116   59  125 1    
   117   60   61 1    
   118   60   62 1    
   119   60  126 1    
   120   61  127 1    
   121   61  128 1    
   122   61  129 1    
   123   62   63 2    
   124   62   64 am   BACKBONE|DICT|INTERRES
   125   64   65 1    
   126   64  130 1    
   127   65   66 1    
   128   65   69 1    
   129   65  131 1    
   130   66   67 am   BACKBONE|DICT|INTERRES
   131   66   68 2    
   132   67  132 1    
   133   67  133 1    
   134   69   70 1    
   135   69  134 1    
   136   69  135 1    
   137   70   71 1    
   138   71  136 1    
   139   71  137 1    
@<TRIPOS>SUBSTRUCTURE
     1 UNK         1 GROUP             0       ****    0 ROOT    
