@<TRIPOS>MOLECULE
3R136
137   139    1
SMALL
USER_CHARGES


@<TRIPOS>ATOM
      1 CA         31.6953   21.5011    1.1876 C.3       0 UNK        -0.1979 
      2 C          30.2701   21.5247    1.7191 C.2       0 UNK         0.4864 
      3 O          29.6564   20.4684    1.8746 O.2       0 UNK        -0.5359 
      4 N          29.7376   22.7263    1.9751 N.am      1 UNK        -0.4318 
      5 CA         28.4344   23.0545    2.5788 C.3       1 UNK         0.0824 
      6 C6         28.2427   22.5122    4.0211 C.3       12 UNK        -0.0944 
      7 S7         29.5830   22.8685    5.2169 S.3       12 UNK        -0.2672 
      8 C8         29.9328   24.6517    5.0255 C.3       12 UNK         0.0333 
      9 C9         30.9678   24.9249    3.9400 C.ar      12 UNK        -0.0807 
     10 C10        32.2373   24.3488    4.0216 C.ar      12 UNK        -0.0894 
     11 C11        33.1879   24.5685    3.0212 C.ar      12 UNK        -0.0804 
     12 C12        32.8533   25.3658    1.9223 C.ar      12 UNK        -0.0824 
     13 C13        31.5848   25.9486    1.8196 C.ar      12 UNK        -0.0762 
     14 C14        30.6573   25.7413    2.8494 C.ar      12 UNK        -0.0782 
     15 C15        31.2615   26.8226    0.6065 C.3       12 UNK         0.0230 
     16 S16        29.5428   26.6623    0.0082 S.3       12 UNK        -0.2608 
     17 C17        28.6744   27.9359    0.9887 C.3       12 UNK        -0.0989 
     18 CA         27.9380   28.9617    0.0926 C.3       5 UNK         0.0716 
     19 N          26.8741   28.3288   -0.6831 N.am      5 UNK        -0.4135 
     20 C          26.2846   28.8379   -1.7688 C.2       4 UNK         0.5031 
     21 O          26.6005   29.9197   -2.2687 O.2       4 UNK        -0.5229 
     22 CA         25.1742   27.9767   -2.4129 C.3       4 UNK         0.0329 
     23 CB         24.6054   28.6080   -3.6980 C.3       4 UNK        -0.2001 
     24 N          25.6176   26.6085   -2.7130 N.am      4 UNK        -0.4303 
     25 C          25.7931   25.6351   -1.8102 C.2       3 UNK         0.5044 
     26 O          25.5849   25.7859   -0.6025 O.2       3 UNK        -0.5152 
     27 CA         26.3179   24.2912   -2.3327 C.3       3 UNK         0.0319 
     28 CB         27.7750   24.4143   -2.8232 C.3       3 UNK        -0.2001 
     29 N          26.2349   23.3171   -1.2489 N.am      3 UNK        -0.4354 
     30 C          26.3183   21.9877   -1.3506 C.2       2 UNK         0.4964 
     31 O          26.4698   21.3956   -2.4210 O.2       2 UNK        -0.5047 
     32 CA         26.2379   21.1952   -0.0287 C.3       2 UNK         0.0288 
     33 CB         26.3683   19.6743   -0.2368 C.3       2 UNK        -0.2113 
     34 N          27.2623   21.6273    0.9265 N.am      2 UNK        -0.4145 
     35 C          27.2104   22.7197    1.6983 C.2       1 UNK         0.5006 
     36 O          26.2398   23.4780    1.7161 O.2       1 UNK        -0.5103 
     37 C          27.3590   30.0958    0.9564 C.2       5 UNK         0.5055 
     38 O          26.3688   29.8819    1.6609 O.2       5 UNK        -0.5220 
     39 N          28.0199   31.2581    0.9288 N.am      6 UNK        -0.4450 
     40 CA         27.8204   32.3393    1.8939 C.3       6 UNK         0.0367 
     41 CB         28.2979   33.6604    1.2685 C.3       6 UNK        -0.1929 
     42 C          28.6154   32.0422    3.1745 C.2       6 UNK         0.5070 
     43 O          29.6248   31.3361    3.1137 O.2       6 UNK        -0.5237 
     44 N          28.2027   32.6368    4.3008 N.am      7 UNK        -0.4739 
     45 CA         28.8583   32.4812    5.6081 C.3       7 UNK         0.0276 
     46 CB         28.0392   33.2161    6.6811 C.3       7 UNK        -0.1927 
     47 C          30.3271   32.9478    5.6362 C.2       7 UNK         0.5013 
     48 O          31.1281   32.3768    6.3755 O.2       7 UNK        -0.5193 
     49 N          30.6551   33.9516    4.8109 N.am      8 UNK        -0.4253 
     50 CA         32.0177   34.4459    4.6016 C.3       8 UNK         0.0242 
     51 CB         31.9494   35.8810    4.0535 C.3       8 UNK        -0.2000 
     52 C          32.8516   33.5545    3.6609 C.2       8 UNK         0.4948 
     53 O          34.0802   33.6133    3.7233 O.2       8 UNK        -0.5275 
     54 N          32.1886   32.7702    2.7984 N.am      9 UNK        -0.4246 
     55 CA         32.8262   31.8629    1.8405 C.3       9 UNK         0.0261 
     56 CB         31.9609   31.7676    0.5727 C.3       9 UNK        -0.1959 
     57 C          33.0575   30.4634    2.4311 C.2       9 UNK         0.5033 
     58 O          33.9875   29.7813    1.9983 O.2       9 UNK        -0.5390 
     59 N          32.2059   30.0536    3.3828 N.am      10 UNK        -0.4215 
     60 CA         32.2648   28.7710    4.0834 C.3       10 UNK         0.0240 
     61 CB         31.0619   28.6546    5.0330 C.3       10 UNK        -0.1982 
     62 C          33.5886   28.5582    4.8350 C.2       10 UNK         0.4970 
     63 O          34.0666   29.4798    5.5002 O.2       10 UNK        -0.4916 
     64 N          34.1488   27.3483    4.7133 N.am      11 UNK        -0.4279 
     65 CA         35.4530   26.9797    5.2837 C.3       11 UNK         0.1003 
     66 C          35.4659   26.7303    6.8217 C.2       11 UNK         0.5709 
     67 N          34.3242   26.6797    7.4982 N.am      11 UNK        -0.7358 
     68 O          36.5350   26.5969    7.4129 O.2       11 UNK        -0.4999 
     69 C69        36.1296   25.8436    4.4689 C.3       12 UNK        -0.0954 
     70 S70        35.3964   24.1847    4.6901 S.3       12 UNK        -0.2268 
     71 C71        34.5525   23.8954    3.1003 C.3       12 UNK         0.0203 
     72 H72        32.0731   22.5040    0.9894 H         1 UNK         0.0888 
     73 H73        32.3560   21.0277    1.9133 H         1 UNK         0.0888 
     74 H74        31.7422   20.9324    0.2594 H         1 UNK         0.0888 
     75 H75        30.3171   23.5377    1.8066 H         1 UNK         0.3017 
     76 H76        28.4224   24.1414    2.6435 H         1 UNK         0.0873 
     77 H77        27.3186   22.9086    4.4466 H         1 UNK         0.0745 
     78 H78        28.1154   21.4283    3.9970 H         1 UNK         0.0745 
     79 H79        30.3204   25.0308    5.9720 H         1 UNK         0.0705 
     80 H80        29.0023   25.1902    4.8399 H         1 UNK         0.0705 
     81 H81        32.4800   23.7118    4.8617 H         1 UNK         0.1334 
     82 H82        33.5816   25.5274    1.1388 H         1 UNK         0.1417 
     83 H83        29.6822   26.2013    2.8013 H         1 UNK         0.1562 
     84 H84        31.9151   26.5486   -0.2230 H         1 UNK         0.0748 
     85 H85        31.4892   27.8646    0.8350 H         1 UNK         0.0748 
     86 H86        29.3896   28.4441    1.6398 H         1 UNK         0.0940 
     87 H87        27.9667   27.4351    1.6527 H         1 UNK         0.0940 
     88 H88        28.6603   29.3876   -0.6077 H         1 UNK         0.0703 
     89 H89        26.5371   27.4318   -0.3461 H         1 UNK         0.3081 
     90 H90        24.3597   27.9222   -1.6871 H         1 UNK         0.0719 
     91 H91        25.3666   28.7003   -4.4738 H         1 UNK         0.0809 
     92 H92        23.7836   28.0163   -4.1015 H         1 UNK         0.0809 
     93 H93        24.2148   29.6079   -3.5034 H         1 UNK         0.0809 
     94 H94        25.8432   26.4154   -3.6785 H         1 UNK         0.2990 
     95 H95        25.6746   23.9671   -3.1532 H         1 UNK         0.0690 
     96 H96        28.1395   23.4726   -3.2335 H         1 UNK         0.0788 
     97 H97        28.4457   24.7045   -2.0141 H         1 UNK         0.0788 
     98 H98        27.8708   25.1619   -3.6113 H         1 UNK         0.0788 
     99 H99        26.0775   23.7314   -0.3321 H         1 UNK         0.2993 
    100 H100       25.2523   21.3887    0.4005 H         1 UNK         0.0949 
    101 H101       25.5976   19.3032   -0.9138 H         1 UNK         0.0767 
    102 H102       27.3365   19.4075   -0.6629 H         1 UNK         0.0767 
    103 H103       26.2573   19.1353    0.7044 H         1 UNK         0.0767 
    104 H104       28.0958   21.0499    1.0081 H         1 UNK         0.3013 
    105 H105       28.8310   31.3377    0.3342 H         1 UNK         0.3121 
    106 H106       26.7595   32.4223    2.1404 H         1 UNK         0.0774 
    107 H107       28.1311   34.4991    1.9457 H         1 UNK         0.0815 
    108 H108       29.3625   33.6392    1.0318 H         1 UNK         0.0815 
    109 H109       27.7560   33.8799    0.3483 H         1 UNK         0.0815 
    110 H110       27.3748   33.2159    4.2738 H         1 UNK         0.2987 
    111 H111       28.8586   31.4155    5.8485 H         1 UNK         0.0949 
    112 H112       27.9746   34.2860    6.4791 H         1 UNK         0.0806 
    113 H113       27.0243   32.8233    6.7451 H         1 UNK         0.0806 
    114 H114       28.4921   33.0977    7.6667 H         1 UNK         0.0806 
    115 H115       29.9223   34.3732    4.2591 H         1 UNK         0.3010 
    116 H116       32.5307   34.4739    5.5657 H         1 UNK         0.0829 
    117 H117       31.4215   36.5436    4.7396 H         1 UNK         0.0813 
    118 H118       32.9500   36.2933    3.9143 H         1 UNK         0.0813 
    119 H119       31.4434   35.9227    3.0880 H         1 UNK         0.0813 
    120 H120       31.1798   32.7200    2.8598 H         1 UNK         0.3038 
    121 H121       33.7992   32.2670    1.5524 H         1 UNK         0.0769 
    122 H122       32.4488   31.1508   -0.1832 H         1 UNK         0.0811 
    123 H123       31.7932   32.7496    0.1301 H         1 UNK         0.0811 
    124 H124       30.9903   31.3178    0.7788 H         1 UNK         0.0811 
    125 H125       31.4176   30.6527    3.6040 H         1 UNK         0.3204 
    126 H126       32.1825   28.0021    3.3210 H         1 UNK         0.0748 
    127 H127       31.0587   27.6923    5.5463 H         1 UNK         0.0771 
    128 H128       31.0774   29.4346    5.7957 H         1 UNK         0.0771 
    129 H129       30.1196   28.7357    4.4903 H         1 UNK         0.0771 
    130 H130       33.6825   26.6284    4.1790 H         1 UNK         0.2980 
    131 H131       36.0955   27.8523    5.1495 H         1 UNK         0.0545 
    132 H132       34.3466   26.5241    8.4934 H         1 UNK         0.3459 
    133 H133       33.4445   26.7921    7.0224 H         1 UNK         0.3459 
    134 H134       36.1360   26.1014    3.4088 H         1 UNK         0.0616 
    135 H135       37.1812   25.7709    4.7516 H         1 UNK         0.0616 
    136 H136       35.2005   24.2100    2.2809 H         1 UNK         0.0634 
    137 H137       34.4088   22.8210    2.9795 H         1 UNK         0.0634 
@<TRIPOS>BOND
     1    1    2 1    
     2    1   72 1    
     3    1   73 1    
     4    1   74 1    
     5    2    3 2    
     6    2    4 am   BACKBONE|DICT|INTERRES
     7    4    5 1    
     8    4   75 1    
     9    5    6 1    
    10    5   35 1    
    11    5   76 1    
    12    6    7 1    
    13    6   77 1    
    14    6   78 1    
    15    7    8 1    
    16    8    9 1    
    17    8   79 1    
    18    8   80 1    
    19    9   10 ar   
    20    9   14 ar   
    21   10   11 ar   
    22   10   81 1    
    23   11   12 ar   
    24   11   71 1    
    25   12   13 ar   
    26   12   82 1    
    27   13   14 ar   
    28   13   15 1    
    29   14   83 1    
    30   15   16 1    
    31   15   84 1    
    32   15   85 1    
    33   16   17 1    
    34   17   18 1    
    35   17   86 1    
    36   17   87 1    
    37   18   19 1    
    38   18   37 1    
    39   18   88 1    
    40   19   20 am   BACKBONE|DICT|INTERRES
    41   19   89 1    
    42   20   21 2    
    43   20   22 1    
    44   22   23 1    
    45   22   24 1    
    46   22   90 1    
    47   23   91 1    
    48   23   92 1    
    49   23   93 1    
    50   24   25 am   BACKBONE|DICT|INTERRES
    51   24   94 1    
    52   25   26 2    
    53   25   27 1    
    54   27   28 1    
    55   27   29 1    
    56   27   95 1    
    57   28   96 1    
    58   28   97 1    
    59   28   98 1    
    60   29   30 am   BACKBONE|DICT|INTERRES
    61   29   99 1    
    62   30   31 2    
    63   30   32 1    
    64   32   33 1    
    65   32   34 1    
    66   32  100 1    
    67   33  101 1    
    68   33  102 1    
    69   33  103 1    
    70   34   35 am   BACKBONE|DICT|INTERRES
    71   34  104 1    
    72   35   36 2    
    73   37   38 2    
    74   37   39 am   BACKBONE|DICT|INTERRES
    75   39   40 1    
    76   39  105 1    
    77   40   41 1    
    78   40   42 1    
    79   40  106 1    
    80   41  107 1    
    81   41  108 1    
    82   41  109 1    
    83   42   43 2    
    84   42   44 am   BACKBONE|DICT|INTERRES
    85   44   45 1    
    86   44  110 1    
    87   45   46 1    
    88   45   47 1    
    89   45  111 1    
    90   46  112 1    
    91   46  113 1    
    92   46  114 1    
    93   47   48 2    
    94   47   49 am   BACKBONE|DICT|INTERRES
    95   49   50 1    
    96   49  115 1    
    97   50   51 1    
    98   50   52 1    
    99   50  116 1    
   100   51  117 1    
   101   51  118 1    
   102   51  119 1    
   103   52   53 2    
   104   52   54 am   BACKBONE|DICT|INTERRES
   105   54   55 1    
   106   54  120 1    
   107   55   56 1    
   108   55   57 1    
   109   55  121 1    
   110   56  122 1    
   111   56  123 1    
   112   56  124 1    
   113   57   58 2    
   114   57   59 am   BACKBONE|DICT|INTERRES
   115   59   60 1    
   116   59  125 1    
   117   60   61 1    
   118   60   62 1    
   119   60  126 1    
   120   61  127 1    
   121   61  128 1    
   122   61  129 1    
   123   62   63 2    
   124   62   64 am   BACKBONE|DICT|INTERRES
   125   64   65 1    
   126   64  130 1    
   127   65   66 1    
   128   65   69 1    
   129   65  131 1    
   130   66   67 am   BACKBONE|DICT|INTERRES
   131   66   68 2    
   132   67  132 1    
   133   67  133 1    
   134   69   70 1    
   135   69  134 1    
   136   69  135 1    
   137   70   71 1    
   138   71  136 1    
   139   71  137 1    
@<TRIPOS>SUBSTRUCTURE
     1 UNK         1 GROUP             0       ****    0 ROOT    
