@<TRIPOS>MOLECULE
3R136
137   139    1
SMALL
USER_CHARGES


@<TRIPOS>ATOM
      1 CA         29.0139   18.5520    3.5292 C.3       0 UNK        -0.1979 
      2 C          28.9401   19.1226    2.1207 C.2       0 UNK         0.4864 
      3 O          28.2284   18.5770    1.2764 O.2       0 UNK        -0.5359 
      4 N          29.6716   20.2149    1.8617 N.am      1 UNK        -0.4318 
      5 CA         29.7101   20.9227    0.5753 C.3       1 UNK         0.0824 
      6 C6         30.9328   21.8712    0.4672 C.3       12 UNK        -0.0944 
      7 S7         31.1417   22.9915    1.8955 S.3       12 UNK        -0.2672 
      8 C8         30.5427   24.5636    1.2086 C.3       12 UNK         0.0333 
      9 C9         30.5742   25.6556    2.2648 C.ar      12 UNK        -0.0807 
     10 C10        31.6404   26.5572    2.3110 C.ar      12 UNK        -0.0894 
     11 C11        31.6898   27.5520    3.2927 C.ar      12 UNK        -0.0804 
     12 C12        30.6509   27.6487    4.2230 C.ar      12 UNK        -0.0824 
     13 C13        29.5752   26.7556    4.1851 C.ar      12 UNK        -0.0762 
     14 C14        29.5450   25.7570    3.2057 C.ar      12 UNK        -0.0782 
     15 C15        28.4572   26.8646    5.2154 C.3       12 UNK         0.0230 
     16 S16        26.8319   27.2178    4.4679 S.3       12 UNK        -0.2608 
     17 C17        27.1685   28.7360    3.5090 C.3       12 UNK        -0.0989 
     18 CA         27.2857   28.4345    1.9894 C.3       5 UNK         0.0716 
     19 N          26.0853   27.8084    1.4261 N.am      5 UNK        -0.4135 
     20 C          24.8852   28.3810    1.2386 C.2       4 UNK         0.5031 
     21 O          24.6023   29.5138    1.6326 O.2       4 UNK        -0.5229 
     22 CA         23.8264   27.5694    0.4551 C.3       4 UNK         0.0329 
     23 CB         22.9555   28.4742   -0.4426 C.3       4 UNK        -0.2001 
     24 N          24.3753   26.4532   -0.3307 N.am      4 UNK        -0.4303 
     25 C          25.3241   26.5121   -1.2798 C.2       3 UNK         0.5044 
     26 O          25.8377   27.5633   -1.6666 O.2       3 UNK        -0.5152 
     27 CA         25.8370   25.1616   -1.8211 C.3       3 UNK         0.0319 
     28 CB         27.2409   25.2825   -2.4521 C.3       3 UNK        -0.2001 
     29 N          25.8303   24.0787   -0.8239 N.am      3 UNK        -0.4354 
     30 C          26.4265   24.0757    0.3799 C.2       2 UNK         0.4964 
     31 O          27.0013   25.0521    0.8636 O.2       2 UNK        -0.5047 
     32 CA         26.3524   22.7752    1.2032 C.3       2 UNK         0.0288 
     33 CB         25.2426   21.8003    0.7463 C.3       2 UNK        -0.2113 
     34 N          27.6477   22.0877    1.2646 N.am      2 UNK        -0.4145 
     35 C          28.3887   21.6458    0.2336 C.2       1 UNK         0.5006 
     36 O          28.0696   21.7682   -0.9504 O.2       1 UNK        -0.5103 
     37 C          27.7672   29.6473    1.1583 C.2       5 UNK         0.5055 
     38 O          28.3649   30.5697    1.7159 O.2       5 UNK        -0.5220 
     39 N          27.5276   29.6228   -0.1654 N.am      6 UNK        -0.4450 
     40 CA         27.8278   30.7100   -1.1078 C.3       6 UNK         0.0367 
     41 CB         27.2559   30.3558   -2.4897 C.3       6 UNK        -0.1929 
     42 C          29.3172   31.0848   -1.2247 C.2       6 UNK         0.5070 
     43 O          29.6223   32.1952   -1.6604 O.2       6 UNK        -0.5237 
     44 N          30.2159   30.1762   -0.8190 N.am      7 UNK        -0.4739 
     45 CA         31.6557   30.4232   -0.6970 C.3       7 UNK         0.0276 
     46 CB         32.3819   29.0848   -0.4967 C.3       7 UNK        -0.1927 
     47 C          32.0162   31.4225    0.4214 C.2       7 UNK         0.5013 
     48 O          33.0837   32.0306    0.3482 O.2       7 UNK        -0.5193 
     49 N          31.1276   31.5832    1.4164 N.am      8 UNK        -0.4253 
     50 CA         31.0771   32.6024    2.4770 C.3       8 UNK         0.0242 
     51 CB         30.8464   33.9953    1.8605 C.3       8 UNK        -0.2000 
     52 C          32.2414   32.6563    3.4859 C.2       8 UNK         0.4948 
     53 O          32.0130   33.0838    4.6182 O.2       8 UNK        -0.5275 
     54 N          33.4539   32.2521    3.0908 N.am      9 UNK        -0.4246 
     55 CA         34.7238   32.3894    3.8189 C.3       9 UNK         0.0261 
     56 CB         35.8748   32.1651    2.8196 C.3       9 UNK        -0.1959 
     57 C          34.8725   31.5129    5.0846 C.2       9 UNK         0.5033 
     58 O          35.9442   30.9445    5.3078 O.2       9 UNK        -0.5390 
     59 N          33.8103   31.4271    5.8966 N.am      10 UNK        -0.4215 
     60 CA         33.6417   30.6849    7.1546 C.3       10 UNK         0.0240 
     61 CB         34.5953   31.2034    8.2496 C.3       10 UNK        -0.1982 
     62 C          33.7348   29.1563    7.0052 C.2       10 UNK         0.4970 
     63 O          32.7831   28.4608    7.3597 O.2       10 UNK        -0.4916 
     64 N          34.8656   28.6753    6.4766 N.am      11 UNK        -0.4279 
     65 CA         35.1810   27.2698    6.1724 C.3       11 UNK         0.1003 
     66 C          35.2496   26.3255    7.4124 C.2       11 UNK         0.5709 
     67 N          35.4092   26.8416    8.6256 N.am      11 UNK        -0.7358 
     68 O          35.1962   25.1050    7.2770 O.2       11 UNK        -0.4999 
     69 C69        34.3050   26.7017    5.0204 C.3       12 UNK        -0.0954 
     70 S70        34.4745   27.6569    3.4706 S.3       12 UNK        -0.2268 
     71 C71        32.8696   28.5147    3.3651 C.3       12 UNK         0.0203 
     72 H72        28.0242   18.5494    3.9852 H         1 UNK         0.0888 
     73 H73        29.3786   17.5256    3.4993 H         1 UNK         0.0888 
     74 H74        29.6806   19.1299    4.1691 H         1 UNK         0.0888 
     75 H75        30.2463   20.6188    2.5889 H         1 UNK         0.3017 
     76 H76        29.8343   20.1603   -0.1973 H         1 UNK         0.0873 
     77 H77        31.8403   21.2691    0.4010 H         1 UNK         0.0745 
     78 H78        30.9042   22.4460   -0.4608 H         1 UNK         0.0745 
     79 H79        31.1574   24.8432    0.3515 H         1 UNK         0.0705 
     80 H80        29.5282   24.4389    0.8323 H         1 UNK         0.0705 
     81 H81        32.4467   26.4716    1.5953 H         1 UNK         0.1334 
     82 H82        30.6867   28.4132    4.9874 H         1 UNK         0.1417 
     83 H83        28.7160   25.0628    3.1711 H         1 UNK         0.1562 
     84 H84        28.6799   27.6396    5.9506 H         1 UNK         0.0748 
     85 H85        28.3934   25.9277    5.7702 H         1 UNK         0.0748 
     86 H86        28.0809   29.1988    3.8892 H         1 UNK         0.0940 
     87 H87        26.3693   29.4542    3.6979 H         1 UNK         0.0940 
     88 H88        28.0757   27.6945    1.8630 H         1 UNK         0.0703 
     89 H89        26.2242   26.8560    1.1006 H         1 UNK         0.3081 
     90 H90        23.1759   27.1216    1.2077 H         1 UNK         0.0719 
     91 H91        22.4252   29.2223    0.1480 H         1 UNK         0.0809 
     92 H92        23.5558   29.0085   -1.1799 H         1 UNK         0.0809 
     93 H93        22.2028   27.8959   -0.9783 H         1 UNK         0.0809 
     94 H94        24.0402   25.5353   -0.0732 H         1 UNK         0.2990 
     95 H95        25.1414   24.8655   -2.6074 H         1 UNK         0.0690 
     96 H96        27.5834   24.3238   -2.8422 H         1 UNK         0.0788 
     97 H97        27.9789   25.6306   -1.7283 H         1 UNK         0.0788 
     98 H98        27.2404   25.9885   -3.2836 H         1 UNK         0.0788 
     99 H99        25.3837   23.2206   -1.1169 H         1 UNK         0.2993 
    100 H100       26.1172   23.0824    2.2236 H         1 UNK         0.0949 
    101 H101       25.4287   21.3911   -0.2474 H         1 UNK         0.0767 
    102 H102       25.1625   20.9572    1.4330 H         1 UNK         0.0767 
    103 H103       24.2677   22.2896    0.7299 H         1 UNK         0.0767 
    104 H104       28.0279   21.9570    2.1911 H         1 UNK         0.3013 
    105 H105       27.0193   28.8327   -0.5526 H         1 UNK         0.3121 
    106 H106       27.3086   31.5996   -0.7453 H         1 UNK         0.0774 
    107 H107       27.6969   29.4396   -2.8846 H         1 UNK         0.0815 
    108 H108       26.1756   30.2157   -2.4472 H         1 UNK         0.0815 
    109 H109       27.4491   31.1504   -3.2118 H         1 UNK         0.0815 
    110 H110       29.8734   29.2829   -0.4970 H         1 UNK         0.2987 
    111 H111       32.0038   30.8612   -1.6351 H         1 UNK         0.0949 
    112 H112       32.2727   28.4420   -1.3704 H         1 UNK         0.0806 
    113 H113       33.4509   29.2335   -0.3367 H         1 UNK         0.0806 
    114 H114       31.9915   28.5448    0.3636 H         1 UNK         0.0806 
    115 H115       30.2861   31.0152    1.3716 H         1 UNK         0.3010 
    116 H116       30.1892   32.3556    3.0618 H         1 UNK         0.0829 
    117 H117       31.6914   34.3121    1.2480 H         1 UNK         0.0813 
    118 H118       29.9551   34.0066    1.2327 H         1 UNK         0.0813 
    119 H119       30.7057   34.7498    2.6359 H         1 UNK         0.0813 
    120 H120       33.5274   31.9768    2.1138 H         1 UNK         0.3038 
    121 H121       34.7869   33.4240    4.1621 H         1 UNK         0.0769 
    122 H122       35.7934   32.8328    1.9615 H         1 UNK         0.0811 
    123 H123       35.8851   31.1398    2.4470 H         1 UNK         0.0811 
    124 H124       36.8443   32.3560    3.2818 H         1 UNK         0.0811 
    125 H125       32.9972   31.9667    5.5981 H         1 UNK         0.3204 
    126 H126       32.6244   30.9026    7.4843 H         1 UNK         0.0748 
    127 H127       35.6433   31.0452    7.9936 H         1 UNK         0.0771 
    128 H128       34.4529   32.2702    8.4224 H         1 UNK         0.0771 
    129 H129       34.4124   30.6955    9.1975 H         1 UNK         0.0771 
    130 H130       35.5469   29.3617    6.1597 H         1 UNK         0.2980 
    131 H131       36.2073   27.2893    5.8048 H         1 UNK         0.0545 
    132 H132       35.4653   26.2256    9.4212 H         1 UNK         0.3459 
    133 H133       35.4691   27.8390    8.7510 H         1 UNK         0.3459 
    134 H134       33.2597   26.6494    5.3261 H         1 UNK         0.0616 
    135 H135       34.5982   25.6771    4.7865 H         1 UNK         0.0616 
    136 H136       32.8705   29.1515    2.4812 H         1 UNK         0.0634 
    137 H137       32.7722   29.1848    4.2190 H         1 UNK         0.0634 
@<TRIPOS>BOND
     1    1    2 1    
     2    1   72 1    
     3    1   73 1    
     4    1   74 1    
     5    2    3 2    
     6    2    4 am   BACKBONE|DICT|INTERRES
     7    4    5 1    
     8    4   75 1    
     9    5    6 1    
    10    5   35 1    
    11    5   76 1    
    12    6    7 1    
    13    6   77 1    
    14    6   78 1    
    15    7    8 1    
    16    8    9 1    
    17    8   79 1    
    18    8   80 1    
    19    9   10 ar   
    20    9   14 ar   
    21   10   11 ar   
    22   10   81 1    
    23   11   12 ar   
    24   11   71 1    
    25   12   13 ar   
    26   12   82 1    
    27   13   14 ar   
    28   13   15 1    
    29   14   83 1    
    30   15   16 1    
    31   15   84 1    
    32   15   85 1    
    33   16   17 1    
    34   17   18 1    
    35   17   86 1    
    36   17   87 1    
    37   18   19 1    
    38   18   37 1    
    39   18   88 1    
    40   19   20 am   BACKBONE|DICT|INTERRES
    41   19   89 1    
    42   20   21 2    
    43   20   22 1    
    44   22   23 1    
    45   22   24 1    
    46   22   90 1    
    47   23   91 1    
    48   23   92 1    
    49   23   93 1    
    50   24   25 am   BACKBONE|DICT|INTERRES
    51   24   94 1    
    52   25   26 2    
    53   25   27 1    
    54   27   28 1    
    55   27   29 1    
    56   27   95 1    
    57   28   96 1    
    58   28   97 1    
    59   28   98 1    
    60   29   30 am   BACKBONE|DICT|INTERRES
    61   29   99 1    
    62   30   31 2    
    63   30   32 1    
    64   32   33 1    
    65   32   34 1    
    66   32  100 1    
    67   33  101 1    
    68   33  102 1    
    69   33  103 1    
    70   34   35 am   BACKBONE|DICT|INTERRES
    71   34  104 1    
    72   35   36 2    
    73   37   38 2    
    74   37   39 am   BACKBONE|DICT|INTERRES
    75   39   40 1    
    76   39  105 1    
    77   40   41 1    
    78   40   42 1    
    79   40  106 1    
    80   41  107 1    
    81   41  108 1    
    82   41  109 1    
    83   42   43 2    
    84   42   44 am   BACKBONE|DICT|INTERRES
    85   44   45 1    
    86   44  110 1    
    87   45   46 1    
    88   45   47 1    
    89   45  111 1    
    90   46  112 1    
    91   46  113 1    
    92   46  114 1    
    93   47   48 2    
    94   47   49 am   BACKBONE|DICT|INTERRES
    95   49   50 1    
    96   49  115 1    
    97   50   51 1    
    98   50   52 1    
    99   50  116 1    
   100   51  117 1    
   101   51  118 1    
   102   51  119 1    
   103   52   53 2    
   104   52   54 am   BACKBONE|DICT|INTERRES
   105   54   55 1    
   106   54  120 1    
   107   55   56 1    
   108   55   57 1    
   109   55  121 1    
   110   56  122 1    
   111   56  123 1    
   112   56  124 1    
   113   57   58 2    
   114   57   59 am   BACKBONE|DICT|INTERRES
   115   59   60 1    
   116   59  125 1    
   117   60   61 1    
   118   60   62 1    
   119   60  126 1    
   120   61  127 1    
   121   61  128 1    
   122   61  129 1    
   123   62   63 2    
   124   62   64 am   BACKBONE|DICT|INTERRES
   125   64   65 1    
   126   64  130 1    
   127   65   66 1    
   128   65   69 1    
   129   65  131 1    
   130   66   67 am   BACKBONE|DICT|INTERRES
   131   66   68 2    
   132   67  132 1    
   133   67  133 1    
   134   69   70 1    
   135   69  134 1    
   136   69  135 1    
   137   70   71 1    
   138   71  136 1    
   139   71  137 1    
@<TRIPOS>SUBSTRUCTURE
     1 UNK         1 GROUP             0       ****    0 ROOT    
