@<TRIPOS>MOLECULE
3R136
137   139    1
SMALL
USER_CHARGES


@<TRIPOS>ATOM
      1 CA         29.9192   19.3824   -0.6894 C.3       0 UNK        -0.1979 
      2 C          29.8086   20.4292   -1.7884 C.2       0 UNK         0.4864 
      3 O          29.6669   20.0747   -2.9601 O.2       0 UNK        -0.5359 
      4 N          29.8805   21.7136   -1.4191 N.am      1 UNK        -0.4318 
      5 CA         29.7083   22.8580   -2.3178 C.3       1 UNK         0.0824 
      6 C6         30.4138   24.1296   -1.7703 C.3       12 UNK        -0.0944 
      7 S7         29.9144   24.6200   -0.0806 S.3       12 UNK        -0.2672 
      8 C8         31.3698   24.0891    0.8767 C.3       12 UNK         0.0333 
      9 C9         31.1938   24.3068    2.3743 C.ar      12 UNK        -0.0807 
     10 C10        32.0895   25.1174    3.0785 C.ar      12 UNK        -0.0894 
     11 C11        31.9721   25.2775    4.4637 C.ar      12 UNK        -0.0804 
     12 C12        30.9389   24.6240    5.1443 C.ar      12 UNK        -0.0824 
     13 C13        30.0379   23.8065    4.4524 C.ar      12 UNK        -0.0762 
     14 C14        30.1722   23.6516    3.0693 C.ar      12 UNK        -0.0782 
     15 C15        28.9406   23.0581    5.1991 C.3       12 UNK         0.0230 
     16 S16        27.2870   23.7546    4.8818 S.3       12 UNK        -0.2608 
     17 C17        27.4328   25.3991    5.6542 C.3       12 UNK        -0.0989 
     18 CA         27.7154   26.4992    4.6043 C.3       5 UNK         0.0716 
     19 N          26.6059   26.6597    3.6585 N.am      5 UNK        -0.4135 
     20 C          26.6158   27.4736    2.5955 C.2       4 UNK         0.5031 
     21 O          27.5679   28.1953    2.2859 O.2       4 UNK        -0.5229 
     22 CA         25.3284   27.5125    1.7543 C.3       4 UNK         0.0329 
     23 CB         24.3933   28.6285    2.2479 C.3       4 UNK        -0.2001 
     24 N          25.6336   27.7305    0.3395 N.am      4 UNK        -0.4303 
     25 C          26.2102   26.8152   -0.4489 C.2       3 UNK         0.5044 
     26 O          26.4184   25.6505   -0.1019 O.2       3 UNK        -0.5152 
     27 CA         26.6462   27.3055   -1.8417 C.3       3 UNK         0.0319 
     28 CB         27.8913   28.2030   -1.7347 C.3       3 UNK        -0.2001 
     29 N          26.9583   26.1938   -2.7390 N.am      3 UNK        -0.4354 
     30 C          26.0581   25.4060   -3.3421 C.2       2 UNK         0.4964 
     31 O          24.8411   25.5903   -3.2900 O.2       2 UNK        -0.5047 
     32 CA         26.6064   24.2188   -4.1577 C.3       2 UNK         0.0288 
     33 CB         26.6256   24.5600   -5.6572 C.3       2 UNK        -0.2113 
     34 N          27.9524   23.8059   -3.7420 N.am      2 UNK        -0.4145 
     35 C          28.2152   23.1012   -2.6317 C.2       1 UNK         0.5006 
     36 O          27.3400   22.6670   -1.8769 O.2       1 UNK        -0.5103 
     37 C          28.0703   27.8284    5.2960 C.2       5 UNK         0.5055 
     38 O          27.1824   28.6471    5.5505 O.2       5 UNK        -0.5220 
     39 N          29.3698   28.0173    5.5610 N.am      6 UNK        -0.4450 
     40 CA         30.0274   29.2422    6.0316 C.3       6 UNK         0.0367 
     41 CB         29.4340   29.7802    7.3489 C.3       6 UNK        -0.1929 
     42 C          30.0846   30.3221    4.9410 C.2       6 UNK         0.5070 
     43 O          31.1785   30.7504    4.5746 O.2       6 UNK        -0.5237 
     44 N          28.9194   30.7019    4.4002 N.am      7 UNK        -0.4739 
     45 CA         28.7379   31.7031    3.3421 C.3       7 UNK         0.0276 
     46 CB         27.2372   31.8510    3.0482 C.3       7 UNK        -0.1927 
     47 C          29.5111   31.4108    2.0422 C.2       7 UNK         0.5013 
     48 O          29.8570   32.3527    1.3289 O.2       7 UNK        -0.5193 
     49 N          29.7868   30.1255    1.7796 N.am      8 UNK        -0.4253 
     50 CA         30.5759   29.6055    0.6617 C.3       8 UNK         0.0242 
     51 CB         30.7113   28.0812    0.8185 C.3       8 UNK        -0.2000 
     52 C          31.9722   30.2335    0.5008 C.2       8 UNK         0.4948 
     53 O          32.4058   30.4241   -0.6368 O.2       8 UNK        -0.5275 
     54 N          32.6553   30.5263    1.6176 N.am      9 UNK        -0.4246 
     55 CA         34.0336   31.0327    1.6130 C.3       9 UNK         0.0261 
     56 CB         35.0099   29.8449    1.4731 C.3       9 UNK        -0.1959 
     57 C          34.3803   31.9102    2.8294 C.2       9 UNK         0.5033 
     58 O          35.5652   32.1670    3.0492 O.2       9 UNK        -0.5390 
     59 N          33.3747   32.3288    3.6160 N.am      10 UNK        -0.4215 
     60 CA         33.4996   32.9300    4.9557 C.3       10 UNK         0.0240 
     61 CB         34.1603   34.3243    4.8953 C.3       10 UNK        -0.1982 
     62 C          34.1892   31.9632    5.9434 C.2       10 UNK         0.4970 
     63 O          35.0326   32.3771    6.7416 O.2       10 UNK        -0.4916 
     64 N          33.8358   30.6799    5.8203 N.am      11 UNK        -0.4279 
     65 CA         34.4281   29.5375    6.5207 C.3       11 UNK         0.1003 
     66 C          33.6636   29.1591    7.8202 C.2       11 UNK         0.5709 
     67 N          34.0902   28.1121    8.5141 N.am      11 UNK        -0.7358 
     68 O          32.7024   29.8101    8.2244 O.2       11 UNK        -0.4999 
     69 C69        34.6452   28.3520    5.5369 C.3       12 UNK        -0.0954 
     70 S70        33.1478   27.8016    4.6404 S.3       12 UNK        -0.2268 
     71 C71        33.0106   26.0862    5.2323 C.3       12 UNK         0.0203 
     72 H72        30.0623   19.8348    0.2919 H         1 UNK         0.0888 
     73 H73        29.0131   18.7780   -0.6551 H         1 UNK         0.0888 
     74 H74        30.7634   18.7214   -0.8840 H         1 UNK         0.0888 
     75 H75        29.9364   21.9494   -0.4394 H         1 UNK         0.3017 
     76 H76        30.1904   22.6068   -3.2655 H         1 UNK         0.0873 
     77 H77        31.4935   23.9724   -1.7871 H         1 UNK         0.0745 
     78 H78        30.2449   24.9803   -2.4326 H         1 UNK         0.0745 
     79 H79        31.5614   23.0310    0.6947 H         1 UNK         0.0705 
     80 H80        32.2441   24.6296    0.5105 H         1 UNK         0.0705 
     81 H81        32.8981   25.6085    2.5541 H         1 UNK         0.1334 
     82 H82        30.8537   24.7261    6.2178 H         1 UNK         0.1417 
     83 H83        29.4813   23.0154    2.5327 H         1 UNK         0.1562 
     84 H84        29.1319   23.0526    6.2733 H         1 UNK         0.0748 
     85 H85        28.9453   22.0127    4.8871 H         1 UNK         0.0748 
     86 H86        28.2185   25.3645    6.4116 H         1 UNK         0.0940 
     87 H87        26.5086   25.6132    6.1948 H         1 UNK         0.0940 
     88 H88        28.5817   26.2007    4.0099 H         1 UNK         0.0703 
     89 H89        25.7801   26.1132    3.8510 H         1 UNK         0.3081 
     90 H90        24.8119   26.5550    1.8533 H         1 UNK         0.0719 
     91 H91        24.8471   29.6139    2.1403 H         1 UNK         0.0809 
     92 H92        23.4528   28.6305    1.6966 H         1 UNK         0.0809 
     93 H93        24.1494   28.4969    3.3030 H         1 UNK         0.0809 
     94 H94        25.5329   28.6745   -0.0030 H         1 UNK         0.2990 
     95 H95        25.8279   27.8863   -2.2728 H         1 UNK         0.0690 
     96 H96        28.1662   28.6173   -2.7048 H         1 UNK         0.0788 
     97 H97        28.7494   27.6494   -1.3526 H         1 UNK         0.0788 
     98 H98        27.7206   29.0444   -1.0617 H         1 UNK         0.0788 
     99 H99        27.9303   25.9352   -2.8045 H         1 UNK         0.2993 
    100 H100       25.9235   23.3793   -4.0076 H         1 UNK         0.0949 
    101 H101       26.9447   23.7057   -6.2547 H         1 UNK         0.0767 
    102 H102       25.6310   24.8428   -6.0054 H         1 UNK         0.0767 
    103 H103       27.2956   25.3930   -5.8746 H         1 UNK         0.0767 
    104 H104       28.7186   24.1075   -4.3274 H         1 UNK         0.3013 
    105 H105       30.0104   27.2852    5.2850 H         1 UNK         0.3121 
    106 H106       31.0557   28.9564    6.2465 H         1 UNK         0.0774 
    107 H107       30.0349   30.6081    7.7274 H         1 UNK         0.0815 
    108 H108       28.4169   30.1533    7.2311 H         1 UNK         0.0815 
    109 H109       29.4244   29.0108    8.1206 H         1 UNK         0.0815 
    110 H110       28.0837   30.2339    4.7390 H         1 UNK         0.2987 
    111 H111       29.1100   32.6539    3.7292 H         1 UNK         0.0949 
    112 H112       26.8095   30.9162    2.6850 H         1 UNK         0.0806 
    113 H113       26.6841   32.1507    3.9384 H         1 UNK         0.0806 
    114 H114       27.0596   32.6103    2.2853 H         1 UNK         0.0806 
    115 H115       29.3464   29.4318    2.3728 H         1 UNK         0.3010 
    116 H116       30.0155   29.8141   -0.2510 H         1 UNK         0.0829 
    117 H117       29.7376   27.5932    0.8531 H         1 UNK         0.0813 
    118 H118       31.2584   27.6462   -0.0191 H         1 UNK         0.0813 
    119 H119       31.2458   27.8139    1.7312 H         1 UNK         0.0813 
    120 H120       32.2348   30.3168    2.5148 H         1 UNK         0.3038 
    121 H121       34.1651   31.6849    0.7469 H         1 UNK         0.0769 
    122 H122       34.8190   29.2755    0.5635 H         1 UNK         0.0811 
    123 H123       34.9283   29.1608    2.3181 H         1 UNK         0.0811 
    124 H124       36.0457   30.1827    1.4231 H         1 UNK         0.0811 
    125 H125       32.4311   32.0552    3.3728 H         1 UNK         0.3204 
    126 H126       32.4827   33.0666    5.3267 H         1 UNK         0.0748 
    127 H127       34.1222   34.8143    5.8689 H         1 UNK         0.0771 
    128 H128       35.2092   34.2677    4.6036 H         1 UNK         0.0771 
    129 H129       33.6489   34.9742    4.1854 H         1 UNK         0.0771 
    130 H130       33.0535   30.4617    5.2134 H         1 UNK         0.2980 
    131 H131       35.4191   29.8401    6.8634 H         1 UNK         0.0545 
    132 H132       34.8894   27.5758    8.2168 H         1 UNK         0.3459 
    133 H133       33.6088   27.8638    9.3639 H         1 UNK         0.3459 
    134 H134       35.1106   27.5065    6.0448 H         1 UNK         0.0616 
    135 H135       35.3700   28.6555    4.7802 H         1 UNK         0.0616 
    136 H136       32.7843   26.1020    6.2997 H         1 UNK         0.0634 
    137 H137       33.9767   25.5912    5.1249 H         1 UNK         0.0634 
@<TRIPOS>BOND
     1    1    2 1    
     2    1   72 1    
     3    1   73 1    
     4    1   74 1    
     5    2    3 2    
     6    2    4 am   BACKBONE|DICT|INTERRES
     7    4    5 1    
     8    4   75 1    
     9    5    6 1    
    10    5   35 1    
    11    5   76 1    
    12    6    7 1    
    13    6   77 1    
    14    6   78 1    
    15    7    8 1    
    16    8    9 1    
    17    8   79 1    
    18    8   80 1    
    19    9   10 ar   
    20    9   14 ar   
    21   10   11 ar   
    22   10   81 1    
    23   11   12 ar   
    24   11   71 1    
    25   12   13 ar   
    26   12   82 1    
    27   13   14 ar   
    28   13   15 1    
    29   14   83 1    
    30   15   16 1    
    31   15   84 1    
    32   15   85 1    
    33   16   17 1    
    34   17   18 1    
    35   17   86 1    
    36   17   87 1    
    37   18   19 1    
    38   18   37 1    
    39   18   88 1    
    40   19   20 am   BACKBONE|DICT|INTERRES
    41   19   89 1    
    42   20   21 2    
    43   20   22 1    
    44   22   23 1    
    45   22   24 1    
    46   22   90 1    
    47   23   91 1    
    48   23   92 1    
    49   23   93 1    
    50   24   25 am   BACKBONE|DICT|INTERRES
    51   24   94 1    
    52   25   26 2    
    53   25   27 1    
    54   27   28 1    
    55   27   29 1    
    56   27   95 1    
    57   28   96 1    
    58   28   97 1    
    59   28   98 1    
    60   29   30 am   BACKBONE|DICT|INTERRES
    61   29   99 1    
    62   30   31 2    
    63   30   32 1    
    64   32   33 1    
    65   32   34 1    
    66   32  100 1    
    67   33  101 1    
    68   33  102 1    
    69   33  103 1    
    70   34   35 am   BACKBONE|DICT|INTERRES
    71   34  104 1    
    72   35   36 2    
    73   37   38 2    
    74   37   39 am   BACKBONE|DICT|INTERRES
    75   39   40 1    
    76   39  105 1    
    77   40   41 1    
    78   40   42 1    
    79   40  106 1    
    80   41  107 1    
    81   41  108 1    
    82   41  109 1    
    83   42   43 2    
    84   42   44 am   BACKBONE|DICT|INTERRES
    85   44   45 1    
    86   44  110 1    
    87   45   46 1    
    88   45   47 1    
    89   45  111 1    
    90   46  112 1    
    91   46  113 1    
    92   46  114 1    
    93   47   48 2    
    94   47   49 am   BACKBONE|DICT|INTERRES
    95   49   50 1    
    96   49  115 1    
    97   50   51 1    
    98   50   52 1    
    99   50  116 1    
   100   51  117 1    
   101   51  118 1    
   102   51  119 1    
   103   52   53 2    
   104   52   54 am   BACKBONE|DICT|INTERRES
   105   54   55 1    
   106   54  120 1    
   107   55   56 1    
   108   55   57 1    
   109   55  121 1    
   110   56  122 1    
   111   56  123 1    
   112   56  124 1    
   113   57   58 2    
   114   57   59 am   BACKBONE|DICT|INTERRES
   115   59   60 1    
   116   59  125 1    
   117   60   61 1    
   118   60   62 1    
   119   60  126 1    
   120   61  127 1    
   121   61  128 1    
   122   61  129 1    
   123   62   63 2    
   124   62   64 am   BACKBONE|DICT|INTERRES
   125   64   65 1    
   126   64  130 1    
   127   65   66 1    
   128   65   69 1    
   129   65  131 1    
   130   66   67 am   BACKBONE|DICT|INTERRES
   131   66   68 2    
   132   67  132 1    
   133   67  133 1    
   134   69   70 1    
   135   69  134 1    
   136   69  135 1    
   137   70   71 1    
   138   71  136 1    
   139   71  137 1    
@<TRIPOS>SUBSTRUCTURE
     1 UNK         1 GROUP             0       ****    0 ROOT    
