@<TRIPOS>MOLECULE
3R136
137   139    1
SMALL
USER_CHARGES


@<TRIPOS>ATOM
      1 CA         27.7858   18.9886   -1.0079 C.3       0 UNK        -0.1979 
      2 C          27.7735   20.2045   -0.0945 C.2       0 UNK         0.4864 
      3 O          26.8274   20.9925   -0.1337 O.2       0 UNK        -0.5359 
      4 N          28.8003   20.3539    0.7560 N.am      1 UNK        -0.4318 
      5 CA         28.9951   21.4991    1.6601 C.3       1 UNK         0.0824 
      6 C6         30.4800   21.6561    2.0885 C.3       12 UNK        -0.0944 
      7 S7         30.9982   23.4051    2.0776 S.3       12 UNK        -0.2672 
      8 C8         31.5867   23.5676    0.3621 C.3       12 UNK         0.0333 
      9 C9         31.7006   25.0203   -0.0857 C.ar      12 UNK        -0.0807 
     10 C10        32.4666   25.9338    0.6464 C.ar      12 UNK        -0.0894 
     11 C11        32.6130   27.2584    0.2145 C.ar      12 UNK        -0.0804 
     12 C12        32.0043   27.6514   -0.9815 C.ar      12 UNK        -0.0824 
     13 C13        31.2467   26.7466   -1.7323 C.ar      12 UNK        -0.0762 
     14 C14        31.0868   25.4369   -1.2714 C.ar      12 UNK        -0.0782 
     15 C15        30.6602   27.1613   -3.0766 C.3       12 UNK         0.0230 
     16 S16        28.8741   27.5046   -2.9945 S.3       12 UNK        -0.2608 
     17 C17        28.8351   29.0211   -1.9791 C.3       12 UNK        -0.0989 
     18 CA         27.9244   28.8967   -0.7308 C.3       5 UNK         0.0716 
     19 N          28.1823   27.6683    0.0320 N.am      5 UNK        -0.4135 
     20 C          27.3005   27.1017    0.8641 C.2       4 UNK         0.5031 
     21 O          26.2327   27.6239    1.1951 O.2       4 UNK        -0.5229 
     22 CA         27.6907   25.7270    1.4358 C.3       4 UNK         0.0329 
     23 CB         28.4429   25.9068    2.7617 C.3       4 UNK        -0.2001 
     24 N          26.5261   24.8654    1.6626 N.am      4 UNK        -0.4303 
     25 C          25.7006   24.4108    0.7085 C.2       3 UNK         0.5044 
     26 O          25.8664   24.6156   -0.4956 O.2       3 UNK        -0.5152 
     27 CA         24.5215   23.5499    1.1936 C.3       3 UNK         0.0319 
     28 CB         23.5845   23.1167    0.0504 C.3       3 UNK        -0.2001 
     29 N          25.0620   22.3579    1.8398 N.am      3 UNK        -0.4354 
     30 C          24.9304   22.0374    3.1359 C.2       2 UNK         0.4964 
     31 O          24.2189   22.6559    3.9275 O.2       2 UNK        -0.5047 
     32 CA         25.7687   20.8472    3.6494 C.3       2 UNK         0.0288 
     33 CB         24.9507   19.5467    3.6010 C.3       2 UNK        -0.2113 
     34 N          27.0027   20.6729    2.8785 N.am      2 UNK        -0.4145 
     35 C          28.0046   21.5646    2.8504 C.2       1 UNK         0.5006 
     36 O          28.1185   22.4575    3.6904 O.2       1 UNK        -0.5103 
     37 C          28.0263   30.1839    0.1145 C.2       5 UNK         0.5055 
     38 O          27.5425   31.2236   -0.3352 O.2       5 UNK        -0.5220 
     39 N          28.6848   30.1100    1.2837 N.am      6 UNK        -0.4450 
     40 CA         29.0188   31.2287    2.1789 C.3       6 UNK         0.0367 
     41 CB         27.7483   31.8460    2.8003 C.3       6 UNK        -0.1929 
     42 C          29.9449   32.2752    1.5237 C.2       6 UNK         0.5070 
     43 O          29.8397   33.4669    1.8164 O.2       6 UNK        -0.5237 
     44 N          30.8503   31.8059    0.6514 N.am      7 UNK        -0.4739 
     45 CA         31.8376   32.6288   -0.0597 C.3       7 UNK         0.0276 
     46 CB         32.3622   31.8445   -1.2740 C.3       7 UNK        -0.1927 
     47 C          33.0066   33.0952    0.8306 C.2       7 UNK         0.5013 
     48 O          33.7319   34.0127    0.4447 O.2       7 UNK        -0.5193 
     49 N          33.1644   32.4615    1.9959 N.am      8 UNK        -0.4253 
     50 CA         34.0975   32.8067    3.0597 C.3       8 UNK         0.0242 
     51 CB         35.3360   31.8989    2.9657 C.3       8 UNK        -0.2000 
     52 C          33.3637   32.5939    4.3873 C.2       8 UNK         0.4948 
     53 O          32.4026   31.8206    4.4265 O.2       8 UNK        -0.5275 
     54 N          33.8425   33.2419    5.4582 N.am      9 UNK        -0.4246 
     55 CA         33.2559   33.1789    6.8052 C.3       9 UNK         0.0261 
     56 CB         34.0226   34.1234    7.7449 C.3       9 UNK        -0.1959 
     57 C          33.1938   31.7594    7.3997 C.2       9 UNK         0.5033 
     58 O          32.2365   31.4381    8.1050 O.2       9 UNK        -0.5390 
     59 N          34.1864   30.9233    7.0648 N.am      10 UNK        -0.4215 
     60 CA         34.2419   29.5015    7.4173 C.3       10 UNK         0.0240 
     61 CB         35.6509   28.9665    7.1123 C.3       10 UNK        -0.1982 
     62 C          33.1784   28.6420    6.7050 C.2       10 UNK         0.4970 
     63 O          32.8737   27.5518    7.1901 O.2       10 UNK        -0.4916 
     64 N          32.6421   29.1354    5.5820 N.am      11 UNK        -0.4279 
     65 CA         31.5972   28.4873    4.7773 C.3       11 UNK         0.1003 
     66 C          30.1629   28.9573    5.1576 C.2       11 UNK         0.5709 
     67 N          29.9735   29.7958    6.1707 N.am      11 UNK        -0.7358 
     68 O          29.1961   28.5534    4.5189 O.2       11 UNK        -0.4999 
     69 C69        31.8724   28.6464    3.2555 C.3       12 UNK        -0.0954 
     70 S70        33.5227   28.0365    2.7793 S.3       12 UNK        -0.2268 
     71 C71        33.4846   28.2621    0.9706 C.3       12 UNK         0.0203 
     72 H72        26.9040   18.3745   -0.8276 H         1 UNK         0.0888 
     73 H73        27.7732   19.3051   -2.0505 H         1 UNK         0.0888 
     74 H74        28.6692   18.3697   -0.8518 H         1 UNK         0.0888 
     75 H75        29.5306   19.6554    0.7714 H         1 UNK         0.3017 
     76 H76        28.7351   22.3728    1.0571 H         1 UNK         0.0873 
     77 H77        31.1439   21.1082    1.4176 H         1 UNK         0.0745 
     78 H78        30.6602   21.2358    3.0800 H         1 UNK         0.0745 
     79 H79        32.5616   23.0869    0.2712 H         1 UNK         0.0705 
     80 H80        30.9086   23.0221   -0.2963 H         1 UNK         0.0705 
     81 H81        32.9603   25.6005    1.5486 H         1 UNK         0.1334 
     82 H82        32.1495   28.6576   -1.3485 H         1 UNK         0.1417 
     83 H83        30.5113   24.7339   -1.8591 H         1 UNK         0.1562 
     84 H84        30.8277   26.3642   -3.8026 H         1 UNK         0.0748 
     85 H85        31.1777   28.0373   -3.4713 H         1 UNK         0.0748 
     86 H86        28.4828   29.8339   -2.6177 H         1 UNK         0.0940 
     87 H87        29.8494   29.2977   -1.6914 H         1 UNK         0.0940 
     88 H88        26.8934   28.8434   -1.0885 H         1 UNK         0.0703 
     89 H89        29.0296   27.1710   -0.2044 H         1 UNK         0.3081 
     90 H90        28.3466   25.2186    0.7254 H         1 UNK         0.0719 
     91 H91        29.3656   26.4680    2.6145 H         1 UNK         0.0809 
     92 H92        27.8420   26.4460    3.4951 H         1 UNK         0.0809 
     93 H93        28.7210   24.9506    3.2011 H         1 UNK         0.0809 
     94 H94        26.3133   24.6447    2.6247 H         1 UNK         0.2990 
     95 H95        23.9454   24.1528    1.8987 H         1 UNK         0.0690 
     96 H96        22.7469   22.5301    0.4278 H         1 UNK         0.0788 
     97 H97        24.1080   22.5126   -0.6923 H         1 UNK         0.0788 
     98 H98        23.1687   23.9838   -0.4643 H         1 UNK         0.0788 
     99 H99        25.6837   21.8032    1.2558 H         1 UNK         0.2993 
    100 H100       26.0374   21.0522    4.6882 H         1 UNK         0.0949 
    101 H101       25.5134   18.7087    4.0129 H         1 UNK         0.0767 
    102 H102       24.0355   19.6408    4.1874 H         1 UNK         0.0767 
    103 H103       24.6600   19.2891    2.5816 H         1 UNK         0.0767 
    104 H104       26.9891   19.9652    2.1587 H         1 UNK         0.3013 
    105 H105       29.0069   29.2000    1.5807 H         1 UNK         0.3121 
    106 H106       29.5989   30.8056    2.9975 H         1 UNK         0.0774 
    107 H107       28.0055   32.5746    3.5700 H         1 UNK         0.0815 
    108 H108       27.1396   32.3608    2.0567 H         1 UNK         0.0815 
    109 H109       27.1302   31.0829    3.2731 H         1 UNK         0.0815 
    110 H110       30.8601   30.8158    0.4597 H         1 UNK         0.2987 
    111 H111       31.3332   33.5262   -0.4254 H         1 UNK         0.0949 
    112 H112       32.9222   30.9589   -0.9745 H         1 UNK         0.0806 
    113 H113       31.5491   31.5286   -1.9280 H         1 UNK         0.0806 
    114 H114       33.0338   32.4619   -1.8724 H         1 UNK         0.0806 
    115 H115       32.4682   31.7821    2.2727 H         1 UNK         0.3010 
    116 H116       34.3905   33.8559    2.9803 H         1 UNK         0.0829 
    117 H117       35.8402   32.0188    2.0066 H         1 UNK         0.0813 
    118 H118       36.0613   32.1383    3.7441 H         1 UNK         0.0813 
    119 H119       35.0734   30.8454    3.0737 H         1 UNK         0.0813 
    120 H120       34.6413   33.8497    5.3417 H         1 UNK         0.3038 
    121 H121       32.2275   33.5383    6.7268 H         1 UNK         0.0769 
    122 H122       35.0717   33.8398    7.8376 H         1 UNK         0.0811 
    123 H123       33.5920   34.1102    8.7474 H         1 UNK         0.0811 
    124 H124       33.9822   35.1543    7.3924 H         1 UNK         0.0811 
    125 H125       34.9320   31.2788    6.4844 H         1 UNK         0.3204 
    126 H126       34.0657   29.4134    8.4915 H         1 UNK         0.0748 
    127 H127       36.4136   29.5150    7.6655 H         1 UNK         0.0771 
    128 H128       35.7401   27.9169    7.3965 H         1 UNK         0.0771 
    129 H129       35.8880   29.0367    6.0496 H         1 UNK         0.0771 
    130 H130       32.8861   30.0711    5.2787 H         1 UNK         0.2980 
    131 H131       31.6101   27.4165    4.9878 H         1 UNK         0.0545 
    132 H132       29.0358   30.0838    6.3985 H         1 UNK         0.3459 
    133 H133       30.7551   30.1540    6.6998 H         1 UNK         0.3459 
    134 H134       31.7941   29.6913    2.9558 H         1 UNK         0.0616 
    135 H135       31.1312   28.0989    2.6720 H         1 UNK         0.0616 
    136 H136       33.1635   29.2831    0.7615 H         1 UNK         0.0634 
    137 H137       34.5049   28.1766    0.5952 H         1 UNK         0.0634 
@<TRIPOS>BOND
     1    1    2 1    
     2    1   72 1    
     3    1   73 1    
     4    1   74 1    
     5    2    3 2    
     6    2    4 am   BACKBONE|DICT|INTERRES
     7    4    5 1    
     8    4   75 1    
     9    5    6 1    
    10    5   35 1    
    11    5   76 1    
    12    6    7 1    
    13    6   77 1    
    14    6   78 1    
    15    7    8 1    
    16    8    9 1    
    17    8   79 1    
    18    8   80 1    
    19    9   10 ar   
    20    9   14 ar   
    21   10   11 ar   
    22   10   81 1    
    23   11   12 ar   
    24   11   71 1    
    25   12   13 ar   
    26   12   82 1    
    27   13   14 ar   
    28   13   15 1    
    29   14   83 1    
    30   15   16 1    
    31   15   84 1    
    32   15   85 1    
    33   16   17 1    
    34   17   18 1    
    35   17   86 1    
    36   17   87 1    
    37   18   19 1    
    38   18   37 1    
    39   18   88 1    
    40   19   20 am   BACKBONE|DICT|INTERRES
    41   19   89 1    
    42   20   21 2    
    43   20   22 1    
    44   22   23 1    
    45   22   24 1    
    46   22   90 1    
    47   23   91 1    
    48   23   92 1    
    49   23   93 1    
    50   24   25 am   BACKBONE|DICT|INTERRES
    51   24   94 1    
    52   25   26 2    
    53   25   27 1    
    54   27   28 1    
    55   27   29 1    
    56   27   95 1    
    57   28   96 1    
    58   28   97 1    
    59   28   98 1    
    60   29   30 am   BACKBONE|DICT|INTERRES
    61   29   99 1    
    62   30   31 2    
    63   30   32 1    
    64   32   33 1    
    65   32   34 1    
    66   32  100 1    
    67   33  101 1    
    68   33  102 1    
    69   33  103 1    
    70   34   35 am   BACKBONE|DICT|INTERRES
    71   34  104 1    
    72   35   36 2    
    73   37   38 2    
    74   37   39 am   BACKBONE|DICT|INTERRES
    75   39   40 1    
    76   39  105 1    
    77   40   41 1    
    78   40   42 1    
    79   40  106 1    
    80   41  107 1    
    81   41  108 1    
    82   41  109 1    
    83   42   43 2    
    84   42   44 am   BACKBONE|DICT|INTERRES
    85   44   45 1    
    86   44  110 1    
    87   45   46 1    
    88   45   47 1    
    89   45  111 1    
    90   46  112 1    
    91   46  113 1    
    92   46  114 1    
    93   47   48 2    
    94   47   49 am   BACKBONE|DICT|INTERRES
    95   49   50 1    
    96   49  115 1    
    97   50   51 1    
    98   50   52 1    
    99   50  116 1    
   100   51  117 1    
   101   51  118 1    
   102   51  119 1    
   103   52   53 2    
   104   52   54 am   BACKBONE|DICT|INTERRES
   105   54   55 1    
   106   54  120 1    
   107   55   56 1    
   108   55   57 1    
   109   55  121 1    
   110   56  122 1    
   111   56  123 1    
   112   56  124 1    
   113   57   58 2    
   114   57   59 am   BACKBONE|DICT|INTERRES
   115   59   60 1    
   116   59  125 1    
   117   60   61 1    
   118   60   62 1    
   119   60  126 1    
   120   61  127 1    
   121   61  128 1    
   122   61  129 1    
   123   62   63 2    
   124   62   64 am   BACKBONE|DICT|INTERRES
   125   64   65 1    
   126   64  130 1    
   127   65   66 1    
   128   65   69 1    
   129   65  131 1    
   130   66   67 am   BACKBONE|DICT|INTERRES
   131   66   68 2    
   132   67  132 1    
   133   67  133 1    
   134   69   70 1    
   135   69  134 1    
   136   69  135 1    
   137   70   71 1    
   138   71  136 1    
   139   71  137 1    
@<TRIPOS>SUBSTRUCTURE
     1 UNK         1 GROUP             0       ****    0 ROOT    
