@<TRIPOS>MOLECULE
3R136
137   139    1
SMALL
USER_CHARGES


@<TRIPOS>ATOM
      1 CA         29.1377   24.1806    5.0674 C.3       0 UNK        -0.1979 
      2 C          28.4094   23.5737    3.8801 C.2       0 UNK         0.4864 
      3 O          27.3382   22.9876    4.0487 O.2       0 UNK        -0.5359 
      4 N          28.9759   23.7156    2.6748 N.am      1 UNK        -0.4318 
      5 CA         28.4085   23.2171    1.4180 C.3       1 UNK         0.0824 
      6 C6         29.4951   22.9820    0.3365 C.3       12 UNK        -0.0944 
      7 S7         30.7567   21.7881    0.9076 S.3       12 UNK        -0.2672 
      8 C8         32.3294   22.6587    0.5991 C.3       12 UNK         0.0333 
      9 C9         32.4001   24.0261    1.2672 C.ar      12 UNK        -0.0807 
     10 C10        32.4289   24.1413    2.6613 C.ar      12 UNK        -0.0894 
     11 C11        32.4870   25.4016    3.2656 C.ar      12 UNK        -0.0804 
     12 C12        32.5158   26.5479    2.4652 C.ar      12 UNK        -0.0824 
     13 C13        32.5127   26.4446    1.0712 C.ar      12 UNK        -0.0762 
     14 C14        32.4554   25.1802    0.4800 C.ar      12 UNK        -0.0782 
     15 C15        32.5993   27.6940    0.2020 C.3       12 UNK         0.0230 
     16 S16        31.1589   27.8816   -0.8964 S.3       12 UNK        -0.2608 
     17 C17        29.8308   28.0728    0.3316 C.3       12 UNK        -0.0989 
     18 CA         28.4817   28.5046   -0.2990 C.3       5 UNK         0.0716 
     19 N          27.9525   27.4592   -1.1751 N.am      5 UNK        -0.4135 
     20 C          27.8080   27.5626   -2.5008 C.2       4 UNK         0.5031 
     21 O          27.9855   28.6050   -3.1334 O.2       4 UNK        -0.5229 
     22 CA         27.4311   26.2870   -3.2674 C.3       4 UNK         0.0329 
     23 CB         28.6781   25.4086   -3.4712 C.3       4 UNK        -0.2001 
     24 N          26.4051   25.5028   -2.5780 N.am      4 UNK        -0.4303 
     25 C          25.1832   25.2419   -3.0637 C.2       3 UNK         0.5044 
     26 O          24.7627   25.6831   -4.1344 O.2       3 UNK        -0.5152 
     27 CA         24.2711   24.3077   -2.2435 C.3       3 UNK         0.0319 
     28 CB         24.2839   22.8910   -2.8412 C.3       3 UNK        -0.2001 
     29 N          24.6312   24.2265   -0.8269 N.am      3 UNK        -0.4354 
     30 C          24.4274   25.2043    0.0657 C.2       2 UNK         0.4964 
     31 O          23.8379   26.2531   -0.1967 O.2       2 UNK        -0.5047 
     32 CA         24.9666   24.9796    1.4910 C.3       2 UNK         0.0288 
     33 CB         23.8471   24.4491    2.4019 C.3       2 UNK        -0.2113 
     34 N          26.1339   24.0944    1.6136 N.am      2 UNK        -0.4145 
     35 C          27.2935   24.1696    0.9428 C.2       1 UNK         0.5006 
     36 O          27.5076   24.9544    0.0167 O.2       1 UNK        -0.5103 
     37 C          27.4790   28.7925    0.8268 C.2       5 UNK         0.5055 
     38 O          26.6964   27.9196    1.1998 O.2       5 UNK        -0.5220 
     39 N          27.6081   29.9789    1.4342 N.am      6 UNK        -0.4450 
     40 CA         26.9473   30.3607    2.6896 C.3       6 UNK         0.0367 
     41 CB         26.7032   31.8811    2.6763 C.3       6 UNK        -0.1929 
     42 C          27.7575   29.9274    3.9337 C.2       6 UNK         0.5070 
     43 O          27.5954   30.5190    5.0018 O.2       6 UNK        -0.5237 
     44 N          28.6501   28.9386    3.7658 N.am      7 UNK        -0.4739 
     45 CA         29.6352   28.3868    4.7065 C.3       7 UNK         0.0276 
     46 CB         28.9636   27.7763    5.9514 C.3       7 UNK        -0.1927 
     47 C          30.7399   29.3846    5.0903 C.2       7 UNK         0.5013 
     48 O          31.9146   29.1311    4.8140 O.2       7 UNK        -0.5193 
     49 N          30.3398   30.5291    5.6586 N.am      8 UNK        -0.4253 
     50 CA         31.1971   31.6350    6.1017 C.3       8 UNK         0.0242 
     51 CB         30.3202   32.7105    6.7625 C.3       8 UNK        -0.2000 
     52 C          32.0651   32.2578    4.9918 C.2       8 UNK         0.4948 
     53 O          33.0706   32.8960    5.3023 O.2       8 UNK        -0.5275 
     54 N          31.6848   32.0288    3.7265 N.am      9 UNK        -0.4246 
     55 CA         32.4184   32.4048    2.5171 C.3       9 UNK         0.0261 
     56 CB         31.5666   32.0442    1.2879 C.3       9 UNK        -0.1959 
     57 C          33.8207   31.7746    2.3973 C.2       9 UNK         0.5033 
     58 O          34.6547   32.3377    1.6861 O.2       9 UNK        -0.5390 
     59 N          34.0652   30.6440    3.0781 N.am      10 UNK        -0.4215 
     60 CA         35.3828   30.0026    3.1394 C.3       10 UNK         0.0240 
     61 CB         35.5079   28.9185    2.0554 C.3       10 UNK        -0.1982 
     62 C          35.7058   29.4298    4.5258 C.2       10 UNK         0.4970 
     63 O          36.8715   29.4759    4.9208 O.2       10 UNK        -0.4916 
     64 N          34.7021   28.9034    5.2403 N.am      11 UNK        -0.4279 
     65 CA         34.8722   28.2678    6.5581 C.3       11 UNK         0.1003 
     66 C          34.7382   29.2534    7.7557 C.2       11 UNK         0.5709 
     67 N          34.5406   30.5490    7.5399 N.am      11 UNK        -0.7358 
     68 O          34.8338   28.8383    8.9083 O.2       11 UNK        -0.4999 
     69 C69        33.9536   27.0264    6.7222 C.3       12 UNK        -0.0954 
     70 S70        34.2088   25.7919    5.3961 S.3       12 UNK        -0.2268 
     71 C71        32.5169   25.5351    4.7806 C.3       12 UNK         0.0203 
     72 H72        28.4284   24.4686    5.8429 H         1 UNK         0.0888 
     73 H73        29.8338   23.4583    5.4924 H         1 UNK         0.0888 
     74 H74        29.6905   25.0703    4.7723 H         1 UNK         0.0888 
     75 H75        29.8616   24.1939    2.5868 H         1 UNK         0.3017 
     76 H76        27.9406   22.2487    1.6109 H         1 UNK         0.0873 
     77 H77        29.9647   23.9227    0.0469 H         1 UNK         0.0745 
     78 H78        29.0437   22.5807   -0.5727 H         1 UNK         0.0745 
     79 H79        32.4728   22.7456   -0.4791 H         1 UNK         0.0705 
     80 H80        33.1503   22.0410    0.9657 H         1 UNK         0.0705 
     81 H81        32.4042   23.2489    3.2723 H         1 UNK         0.1334 
     82 H82        32.5656   27.5208    2.9318 H         1 UNK         0.1417 
     83 H83        32.4486   25.1000   -0.5988 H         1 UNK         0.1562 
     84 H84        33.5023   27.6388   -0.4073 H         1 UNK         0.0748 
     85 H85        32.6977   28.5920    0.8139 H         1 UNK         0.0748 
     86 H86        30.1724   28.8030    1.0672 H         1 UNK         0.0940 
     87 H87        29.7191   27.1254    0.8647 H         1 UNK         0.0940 
     88 H88        28.6290   29.4321   -0.8566 H         1 UNK         0.0703 
     89 H89        27.7405   26.5772   -0.7123 H         1 UNK         0.3081 
     90 H90        27.0773   26.5964   -4.2531 H         1 UNK         0.0719 
     91 H91        29.4691   25.9638   -3.9775 H         1 UNK         0.0809 
     92 H92        29.0845   25.0554   -2.5221 H         1 UNK         0.0809 
     93 H93        28.4511   24.5359   -4.0835 H         1 UNK         0.0809 
     94 H94        26.6569   25.1366   -1.6642 H         1 UNK         0.2990 
     95 H95        23.2537   24.6981   -2.3162 H         1 UNK         0.0690 
     96 H96        23.5876   22.2334   -2.3203 H         1 UNK         0.0788 
     97 H97        25.2759   22.4401   -2.7909 H         1 UNK         0.0788 
     98 H98        23.9867   22.9075   -3.8908 H         1 UNK         0.0788 
     99 H99        25.1081   23.3908   -0.5219 H         1 UNK         0.2993 
    100 H100       25.2693   25.9547    1.8726 H         1 UNK         0.0949 
    101 H101       22.9714   25.0990    2.3667 H         1 UNK         0.0767 
    102 H102       23.5253   23.4503    2.1040 H         1 UNK         0.0767 
    103 H103       24.1705   24.4021    3.4421 H         1 UNK         0.0767 
    104 H104       26.1202   23.4588    2.4042 H         1 UNK         0.3013 
    105 H105       28.2768   30.6414    1.0670 H         1 UNK         0.3121 
    106 H106       25.9762   29.8649    2.7532 H         1 UNK         0.0774 
    107 H107       26.1384   32.1966    3.5547 H         1 UNK         0.0815 
    108 H108       27.6389   32.4415    2.6723 H         1 UNK         0.0815 
    109 H109       26.1264   32.1828    1.8019 H         1 UNK         0.0815 
    110 H110       28.6611   28.5154    2.8503 H         1 UNK         0.2987 
    111 H111       30.1219   27.5745    4.1665 H         1 UNK         0.0949 
    112 H112       29.6962   27.2656    6.5778 H         1 UNK         0.0806 
    113 H113       28.2064   27.0441    5.6721 H         1 UNK         0.0806 
    114 H114       28.4785   28.5304    6.5717 H         1 UNK         0.0806 
    115 H115       29.3350   30.6583    5.7551 H         1 UNK         0.3010 
    116 H116       31.8767   31.2348    6.8559 H         1 UNK         0.0829 
    117 H117       29.5911   33.1213    6.0628 H         1 UNK         0.0813 
    118 H118       29.7753   32.3082    7.6168 H         1 UNK         0.0813 
    119 H119       30.9263   33.5404    7.1290 H         1 UNK         0.0813 
    120 H120       30.8362   31.5008    3.5917 H         1 UNK         0.3038 
    121 H121       32.5516   33.4883    2.5397 H         1 UNK         0.0769 
    122 H122       32.0645   32.3495    0.3663 H         1 UNK         0.0811 
    123 H123       30.5996   32.5469    1.3111 H         1 UNK         0.0811 
    124 H124       31.3905   30.9704    1.2192 H         1 UNK         0.0811 
    125 H125       33.3252   30.2547    3.6499 H         1 UNK         0.3204 
    126 H126       36.1508   30.7550    2.9453 H         1 UNK         0.0748 
    127 H127       34.8282   28.0876    2.2352 H         1 UNK         0.0771 
    128 H128       35.3014   29.3195    1.0631 H         1 UNK         0.0771 
    129 H129       36.5180   28.5074    2.0343 H         1 UNK         0.0771 
    130 H130       33.7474   28.9063    4.8957 H         1 UNK         0.2980 
    131 H131       35.8956   27.8941    6.6249 H         1 UNK         0.0545 
    132 H132       34.4712   31.1719    8.3287 H         1 UNK         0.3459 
    133 H133       34.4873   30.9137    6.6026 H         1 UNK         0.3459 
    134 H134       34.1555   26.5256    7.6706 H         1 UNK         0.0616 
    135 H135       32.9091   27.3372    6.7642 H         1 UNK         0.0616 
    136 H136       31.8736   26.3608    5.0777 H         1 UNK         0.0634 
    137 H137       32.1088   24.6424    5.2557 H         1 UNK         0.0634 
@<TRIPOS>BOND
     1    1    2 1    
     2    1   72 1    
     3    1   73 1    
     4    1   74 1    
     5    2    3 2    
     6    2    4 am   BACKBONE|DICT|INTERRES
     7    4    5 1    
     8    4   75 1    
     9    5    6 1    
    10    5   35 1    
    11    5   76 1    
    12    6    7 1    
    13    6   77 1    
    14    6   78 1    
    15    7    8 1    
    16    8    9 1    
    17    8   79 1    
    18    8   80 1    
    19    9   10 ar   
    20    9   14 ar   
    21   10   11 ar   
    22   10   81 1    
    23   11   12 ar   
    24   11   71 1    
    25   12   13 ar   
    26   12   82 1    
    27   13   14 ar   
    28   13   15 1    
    29   14   83 1    
    30   15   16 1    
    31   15   84 1    
    32   15   85 1    
    33   16   17 1    
    34   17   18 1    
    35   17   86 1    
    36   17   87 1    
    37   18   19 1    
    38   18   37 1    
    39   18   88 1    
    40   19   20 am   BACKBONE|DICT|INTERRES
    41   19   89 1    
    42   20   21 2    
    43   20   22 1    
    44   22   23 1    
    45   22   24 1    
    46   22   90 1    
    47   23   91 1    
    48   23   92 1    
    49   23   93 1    
    50   24   25 am   BACKBONE|DICT|INTERRES
    51   24   94 1    
    52   25   26 2    
    53   25   27 1    
    54   27   28 1    
    55   27   29 1    
    56   27   95 1    
    57   28   96 1    
    58   28   97 1    
    59   28   98 1    
    60   29   30 am   BACKBONE|DICT|INTERRES
    61   29   99 1    
    62   30   31 2    
    63   30   32 1    
    64   32   33 1    
    65   32   34 1    
    66   32  100 1    
    67   33  101 1    
    68   33  102 1    
    69   33  103 1    
    70   34   35 am   BACKBONE|DICT|INTERRES
    71   34  104 1    
    72   35   36 2    
    73   37   38 2    
    74   37   39 am   BACKBONE|DICT|INTERRES
    75   39   40 1    
    76   39  105 1    
    77   40   41 1    
    78   40   42 1    
    79   40  106 1    
    80   41  107 1    
    81   41  108 1    
    82   41  109 1    
    83   42   43 2    
    84   42   44 am   BACKBONE|DICT|INTERRES
    85   44   45 1    
    86   44  110 1    
    87   45   46 1    
    88   45   47 1    
    89   45  111 1    
    90   46  112 1    
    91   46  113 1    
    92   46  114 1    
    93   47   48 2    
    94   47   49 am   BACKBONE|DICT|INTERRES
    95   49   50 1    
    96   49  115 1    
    97   50   51 1    
    98   50   52 1    
    99   50  116 1    
   100   51  117 1    
   101   51  118 1    
   102   51  119 1    
   103   52   53 2    
   104   52   54 am   BACKBONE|DICT|INTERRES
   105   54   55 1    
   106   54  120 1    
   107   55   56 1    
   108   55   57 1    
   109   55  121 1    
   110   56  122 1    
   111   56  123 1    
   112   56  124 1    
   113   57   58 2    
   114   57   59 am   BACKBONE|DICT|INTERRES
   115   59   60 1    
   116   59  125 1    
   117   60   61 1    
   118   60   62 1    
   119   60  126 1    
   120   61  127 1    
   121   61  128 1    
   122   61  129 1    
   123   62   63 2    
   124   62   64 am   BACKBONE|DICT|INTERRES
   125   64   65 1    
   126   64  130 1    
   127   65   66 1    
   128   65   69 1    
   129   65  131 1    
   130   66   67 am   BACKBONE|DICT|INTERRES
   131   66   68 2    
   132   67  132 1    
   133   67  133 1    
   134   69   70 1    
   135   69  134 1    
   136   69  135 1    
   137   70   71 1    
   138   71  136 1    
   139   71  137 1    
@<TRIPOS>SUBSTRUCTURE
     1 UNK         1 GROUP             0       ****    0 ROOT    
