@<TRIPOS>MOLECULE
3R136
137   139    1
SMALL
USER_CHARGES


@<TRIPOS>ATOM
      1 CA         30.0542   17.0991    0.3675 C.3       0 UNK        -0.1979 
      2 C          29.3676   18.4409    0.1622 C.2       0 UNK         0.4864 
      3 O          28.3009   18.4969   -0.4534 O.2       0 UNK        -0.5359 
      4 N          29.9610   19.5258    0.6787 N.am      1 UNK        -0.4318 
      5 CA         29.4475   20.8975    0.5944 C.3       1 UNK         0.0824 
      6 C6         30.5983   21.9293    0.7243 C.3       12 UNK        -0.0944 
      7 S7         30.1203   23.5878    0.1366 S.3       12 UNK        -0.2672 
      8 C8         31.5987   24.5386    0.6024 C.3       12 UNK         0.0333 
      9 C9         31.3518   26.0406    0.5562 C.ar      12 UNK        -0.0807 
     10 C10        31.4306   26.8004    1.7275 C.ar      12 UNK        -0.0894 
     11 C11        31.2482   28.1866    1.6927 C.ar      12 UNK        -0.0804 
     12 C12        31.0047   28.8133    0.4678 C.ar      12 UNK        -0.0824 
     13 C13        30.9061   28.0651   -0.7099 C.ar      12 UNK        -0.0762 
     14 C14        31.0820   26.6787   -0.6590 C.ar      12 UNK        -0.0782 
     15 C15        30.6445   28.7554   -2.0427 C.3       12 UNK         0.0230 
     16 S16        28.8667   28.8430   -2.4404 S.3       12 UNK        -0.2608 
     17 C17        28.2738   30.0694   -1.2218 C.3       12 UNK        -0.0989 
     18 CA         27.2912   29.4983   -0.1619 C.3       5 UNK         0.0716 
     19 N          27.6734   28.1669    0.3269 N.am      5 UNK        -0.4135 
     20 C          26.8385   27.3204    0.9420 C.2       4 UNK         0.5031 
     21 O          25.6920   27.6135    1.2909 O.2       4 UNK        -0.5229 
     22 CA         27.3784   25.9078    1.2158 C.3       4 UNK         0.0329 
     23 CB         27.9493   25.8007    2.6362 C.3       4 UNK        -0.2001 
     24 N          26.3400   24.8913    1.0442 N.am      4 UNK        -0.4303 
     25 C          25.7926   24.5482   -0.1284 C.2       3 UNK         0.5044 
     26 O          26.1532   25.0096   -1.2131 O.2       3 UNK        -0.5152 
     27 CA         24.6824   23.4833   -0.0718 C.3       3 UNK         0.0319 
     28 CB         24.0618   23.1943   -1.4519 C.3       3 UNK        -0.2001 
     29 N          25.2098   22.2353    0.4794 N.am      3 UNK        -0.4354 
     30 C          25.2214   21.9037    1.7776 C.2       2 UNK         0.4964 
     31 O          24.7397   22.6037    2.6687 O.2       2 UNK        -0.5047 
     32 CA         25.9294   20.5878    2.1392 C.3       2 UNK         0.0288 
     33 CB         25.0083   19.3820    1.8918 C.3       2 UNK        -0.2113 
     34 N          27.1730   20.4199    1.3838 N.am      2 UNK        -0.4145 
     35 C          28.2939   21.1213    1.6012 C.2       1 UNK         0.5006 
     36 O          28.4331   21.8923    2.5530 O.2       1 UNK        -0.5103 
     37 C          27.0923   30.5285    0.9698 C.2       5 UNK         0.5055 
     38 O          26.4009   31.5237    0.7499 O.2       5 UNK        -0.5220 
     39 N          27.7292   30.2954    2.1311 N.am      6 UNK        -0.4450 
     40 CA         27.7771   31.1773    3.3078 C.3       6 UNK         0.0367 
     41 CB         26.3812   31.3192    3.9510 C.3       6 UNK        -0.1929 
     42 C          28.4509   32.5362    3.0199 C.2       6 UNK         0.5070 
     43 O          28.0662   33.5513    3.6024 O.2       6 UNK        -0.5237 
     44 N          29.4427   32.5312    2.1194 N.am      7 UNK        -0.4739 
     45 CA         30.1367   33.7205    1.6221 C.3       7 UNK         0.0276 
     46 CB         29.3744   34.2895    0.4080 C.3       7 UNK        -0.1927 
     47 C          31.6124   33.4134    1.3155 C.2       7 UNK         0.5013 
     48 O          32.1412   33.8824    0.3062 O.2       7 UNK        -0.5193 
     49 N          32.2553   32.6269    2.1859 N.am      8 UNK        -0.4253 
     50 CA         33.6764   32.2901    2.1355 C.3       8 UNK         0.0242 
     51 CB         33.9306   31.1445    1.1369 C.3       8 UNK        -0.2000 
     52 C          34.1299   31.9082    3.5478 C.2       8 UNK         0.4948 
     53 O          33.2945   31.5189    4.3689 O.2       8 UNK        -0.5275 
     54 N          35.4443   31.9981    3.7960 N.am      9 UNK        -0.4246 
     55 CA         36.0882   31.7793    5.0996 C.3       9 UNK         0.0261 
     56 CB         37.5998   32.0273    4.9685 C.3       9 UNK        -0.1959 
     57 C          35.8258   30.4023    5.7360 C.2       9 UNK         0.5033 
     58 O          35.7942   30.3049    6.9636 O.2       9 UNK        -0.5390 
     59 N          35.5923   29.3781    4.9023 N.am      10 UNK        -0.4215 
     60 CA         35.2012   28.0238    5.3101 C.3       10 UNK         0.0240 
     61 CB         35.1412   27.1225    4.0649 C.3       10 UNK        -0.1982 
     62 C          33.8680   27.9566    6.0828 C.2       10 UNK         0.4970 
     63 O          33.6638   27.0051    6.8374 O.2       10 UNK        -0.4916 
     64 N          33.0010   28.9578    5.8888 N.am      11 UNK        -0.4279 
     65 CA         31.7192   29.1221    6.5845 C.3       11 UNK         0.1003 
     66 C          31.8296   30.0054    7.8623 C.2       11 UNK         0.5709 
     67 N          33.0026   30.5018    8.2432 N.am      11 UNK        -0.7358 
     68 O          30.8297   30.2308    8.5400 O.2       11 UNK        -0.4999 
     69 C69        30.6240   29.6403    5.6137 C.3       12 UNK        -0.0954 
     70 S70        30.2494   28.4516    4.2807 S.3       12 UNK        -0.2268 
     71 C71        31.3712   29.0156    2.9641 C.3       12 UNK         0.0203 
     72 H72        30.9856   17.1984    0.9247 H         1 UNK         0.0888 
     73 H73        29.3998   16.4236    0.9177 H         1 UNK         0.0888 
     74 H74        30.2823   16.6439   -0.5958 H         1 UNK         0.0888 
     75 H75        30.8183   19.4140    1.2016 H         1 UNK         0.3017 
     76 H76        29.0189   21.0235   -0.4029 H         1 UNK         0.0873 
     77 H77        30.9586   21.9900    1.7532 H         1 UNK         0.0745 
     78 H78        31.4518   21.6115    0.1229 H         1 UNK         0.0745 
     79 H79        31.9165   24.2387    1.6023 H         1 UNK         0.0705 
     80 H80        32.4174   24.2836   -0.0719 H         1 UNK         0.0705 
     81 H81        31.6437   26.3164    2.6711 H         1 UNK         0.1334 
     82 H82        30.9106   29.8886    0.4289 H         1 UNK         0.1417 
     83 H83        31.0206   26.0937   -1.5671 H         1 UNK         0.1562 
     84 H84        31.1530   28.2139   -2.8419 H         1 UNK         0.0748 
     85 H85        31.0718   29.7595   -2.0445 H         1 UNK         0.0748 
     86 H86        27.7769   30.8666   -1.7785 H         1 UNK         0.0940 
     87 H87        29.1304   30.5532   -0.7537 H         1 UNK         0.0940 
     88 H88        26.3218   29.3834   -0.6527 H         1 UNK         0.0703 
     89 H89        28.5932   27.8450    0.0562 H         1 UNK         0.3081 
     90 H90        28.1769   25.6999    0.5018 H         1 UNK         0.0719 
     91 H91        27.1936   26.0050    3.3956 H         1 UNK         0.0809 
     92 H92        28.3600   24.8079    2.8235 H         1 UNK         0.0809 
     93 H93        28.7594   26.5130    2.7791 H         1 UNK         0.0809 
     94 H94        25.9741   24.4640    1.8846 H         1 UNK         0.2990 
     95 H95        23.8903   23.8695    0.5735 H         1 UNK         0.0690 
     96 H96        23.2543   22.4657   -1.3778 H         1 UNK         0.0788 
     97 H97        24.7994   22.8069   -2.1560 H         1 UNK         0.0788 
     98 H98        23.6393   24.1010   -1.8870 H         1 UNK         0.0788 
     99 H99        25.6637   21.6151   -0.1753 H         1 UNK         0.2993 
    100 H100       26.1722   20.6208    3.2038 H         1 UNK         0.0949 
    101 H101       25.4816   18.4521    2.2080 H         1 UNK         0.0767 
    102 H102       24.0790   19.4797    2.4551 H         1 UNK         0.0767 
    103 H103       24.7432   19.2813    0.8385 H         1 UNK         0.0767 
    104 H104       27.1821   19.7430    0.6260 H         1 UNK         0.3013 
    105 H105       28.2536   29.4352    2.2100 H         1 UNK         0.3121 
    106 H106       28.4137   30.6828    4.0395 H         1 UNK         0.0774 
    107 H107       26.4419   31.8461    4.9040 H         1 UNK         0.0815 
    108 H108       25.6956   31.8795    3.3148 H         1 UNK         0.0815 
    109 H109       25.9354   30.3446    4.1491 H         1 UNK         0.0815 
    110 H110       29.7048   31.6539    1.6966 H         1 UNK         0.2987 
    111 H111       30.1496   34.4843    2.4029 H         1 UNK         0.0949 
    112 H112       29.3515   33.5796   -0.4196 H         1 UNK         0.0806 
    113 H113       28.3438   34.5345    0.6656 H         1 UNK         0.0806 
    114 H114       29.8404   35.2057    0.0432 H         1 UNK         0.0806 
    115 H115       31.7910   32.3272    3.0349 H         1 UNK         0.3010 
    116 H116       34.2363   33.1751    1.8248 H         1 UNK         0.0829 
    117 H117       33.5678   31.3947    0.1400 H         1 UNK         0.0813 
    118 H118       34.9968   30.9349    1.0449 H         1 UNK         0.0813 
    119 H119       33.4463   30.2193    1.4445 H         1 UNK         0.0813 
    120 H120       36.0506   32.3092    3.0499 H         1 UNK         0.3038 
    121 H121       35.6804   32.5256    5.7847 H         1 UNK         0.0769 
    122 H122       38.0629   31.3377    4.2616 H         1 UNK         0.0811 
    123 H123       38.1020   31.8957    5.9282 H         1 UNK         0.0811 
    124 H124       37.8092   33.0437    4.6345 H         1 UNK         0.0811 
    125 H125       35.6453   29.5572    3.9104 H         1 UNK         0.3204 
    126 H126       35.9792   27.6426    5.9748 H         1 UNK         0.0748 
    127 H127       36.1056   27.0796    3.5583 H         1 UNK         0.0771 
    128 H128       34.8751   26.0996    4.3355 H         1 UNK         0.0771 
    129 H129       34.3986   27.4713    3.3461 H         1 UNK         0.0771 
    130 H130       33.2611   29.7329    5.2879 H         1 UNK         0.2980 
    131 H131       31.3900   28.1458    6.9445 H         1 UNK         0.0545 
    132 H132       33.0468   31.0634    9.0783 H         1 UNK         0.3459 
    133 H133       33.8484   30.3178    7.7172 H         1 UNK         0.3459 
    134 H134       30.9036   30.6037    5.1850 H         1 UNK         0.0616 
    135 H135       29.6893   29.8103    6.1508 H         1 UNK         0.0616 
    136 H136       31.1656   30.0663    2.7622 H         1 UNK         0.0634 
    137 H137       32.4021   28.9608    3.3091 H         1 UNK         0.0634 
@<TRIPOS>BOND
     1    1    2 1    
     2    1   72 1    
     3    1   73 1    
     4    1   74 1    
     5    2    3 2    
     6    2    4 am   BACKBONE|DICT|INTERRES
     7    4    5 1    
     8    4   75 1    
     9    5    6 1    
    10    5   35 1    
    11    5   76 1    
    12    6    7 1    
    13    6   77 1    
    14    6   78 1    
    15    7    8 1    
    16    8    9 1    
    17    8   79 1    
    18    8   80 1    
    19    9   10 ar   
    20    9   14 ar   
    21   10   11 ar   
    22   10   81 1    
    23   11   12 ar   
    24   11   71 1    
    25   12   13 ar   
    26   12   82 1    
    27   13   14 ar   
    28   13   15 1    
    29   14   83 1    
    30   15   16 1    
    31   15   84 1    
    32   15   85 1    
    33   16   17 1    
    34   17   18 1    
    35   17   86 1    
    36   17   87 1    
    37   18   19 1    
    38   18   37 1    
    39   18   88 1    
    40   19   20 am   BACKBONE|DICT|INTERRES
    41   19   89 1    
    42   20   21 2    
    43   20   22 1    
    44   22   23 1    
    45   22   24 1    
    46   22   90 1    
    47   23   91 1    
    48   23   92 1    
    49   23   93 1    
    50   24   25 am   BACKBONE|DICT|INTERRES
    51   24   94 1    
    52   25   26 2    
    53   25   27 1    
    54   27   28 1    
    55   27   29 1    
    56   27   95 1    
    57   28   96 1    
    58   28   97 1    
    59   28   98 1    
    60   29   30 am   BACKBONE|DICT|INTERRES
    61   29   99 1    
    62   30   31 2    
    63   30   32 1    
    64   32   33 1    
    65   32   34 1    
    66   32  100 1    
    67   33  101 1    
    68   33  102 1    
    69   33  103 1    
    70   34   35 am   BACKBONE|DICT|INTERRES
    71   34  104 1    
    72   35   36 2    
    73   37   38 2    
    74   37   39 am   BACKBONE|DICT|INTERRES
    75   39   40 1    
    76   39  105 1    
    77   40   41 1    
    78   40   42 1    
    79   40  106 1    
    80   41  107 1    
    81   41  108 1    
    82   41  109 1    
    83   42   43 2    
    84   42   44 am   BACKBONE|DICT|INTERRES
    85   44   45 1    
    86   44  110 1    
    87   45   46 1    
    88   45   47 1    
    89   45  111 1    
    90   46  112 1    
    91   46  113 1    
    92   46  114 1    
    93   47   48 2    
    94   47   49 am   BACKBONE|DICT|INTERRES
    95   49   50 1    
    96   49  115 1    
    97   50   51 1    
    98   50   52 1    
    99   50  116 1    
   100   51  117 1    
   101   51  118 1    
   102   51  119 1    
   103   52   53 2    
   104   52   54 am   BACKBONE|DICT|INTERRES
   105   54   55 1    
   106   54  120 1    
   107   55   56 1    
   108   55   57 1    
   109   55  121 1    
   110   56  122 1    
   111   56  123 1    
   112   56  124 1    
   113   57   58 2    
   114   57   59 am   BACKBONE|DICT|INTERRES
   115   59   60 1    
   116   59  125 1    
   117   60   61 1    
   118   60   62 1    
   119   60  126 1    
   120   61  127 1    
   121   61  128 1    
   122   61  129 1    
   123   62   63 2    
   124   62   64 am   BACKBONE|DICT|INTERRES
   125   64   65 1    
   126   64  130 1    
   127   65   66 1    
   128   65   69 1    
   129   65  131 1    
   130   66   67 am   BACKBONE|DICT|INTERRES
   131   66   68 2    
   132   67  132 1    
   133   67  133 1    
   134   69   70 1    
   135   69  134 1    
   136   69  135 1    
   137   70   71 1    
   138   71  136 1    
   139   71  137 1    
@<TRIPOS>SUBSTRUCTURE
     1 UNK         1 GROUP             0       ****    0 ROOT    
