@<TRIPOS>MOLECULE
3R136
137   139    1
SMALL
USER_CHARGES


@<TRIPOS>ATOM
      1 CA         28.0324   21.8778   -3.6641 C.3       0 UNK        -0.1979 
      2 C          27.7700   22.8139   -2.4947 C.2       0 UNK         0.4864 
      3 O          26.6482   23.2969   -2.3353 O.2       0 UNK        -0.5359 
      4 N          28.7860   23.0563   -1.6539 N.am      1 UNK        -0.4318 
      5 CA         28.7355   23.9714   -0.5033 C.3       1 UNK         0.0824 
      6 C6         30.1427   24.2935    0.0524 C.3       12 UNK        -0.0944 
      7 S7         31.1079   22.8288    0.5736 S.3       12 UNK        -0.2672 
      8 C8         30.8066   22.7549    2.3751 C.3       12 UNK         0.0333 
      9 C9         31.1019   24.0673    3.0927 C.ar      12 UNK        -0.0807 
     10 C10        32.3414   24.6968    2.9448 C.ar      12 UNK        -0.0894 
     11 C11        32.5937   25.9257    3.5605 C.ar      12 UNK        -0.0804 
     12 C12        31.6009   26.5177    4.3487 C.ar      12 UNK        -0.0824 
     13 C13        30.3707   25.8790    4.5366 C.ar      12 UNK        -0.0762 
     14 C14        30.1249   24.6590    3.8994 C.ar      12 UNK        -0.0782 
     15 C15        29.3178   26.4869    5.4543 C.3       12 UNK         0.0230 
     16 S16        27.8136   26.9958    4.5626 S.3       12 UNK        -0.2608 
     17 C17        28.4179   28.4147    3.5893 C.3       12 UNK        -0.0989 
     18 CA         28.2292   28.2123    2.0640 C.3       5 UNK         0.0716 
     19 N          26.8173   28.0039    1.7197 N.am      5 UNK        -0.4135 
     20 C          26.3629   27.4071    0.6126 C.2       4 UNK         0.5031 
     21 O          27.0863   27.0264   -0.3119 O.2       4 UNK        -0.5229 
     22 CA         24.8479   27.2310    0.4946 C.3       4 UNK         0.0329 
     23 CB         24.2452   28.3144   -0.4199 C.3       4 UNK        -0.2001 
     24 N          24.5930   25.8980   -0.0422 N.am      4 UNK        -0.4303 
     25 C          23.4267   25.2437    0.0037 C.2       3 UNK         0.5044 
     26 O          22.3899   25.7162    0.4714 O.2       3 UNK        -0.5152 
     27 CA         23.4185   23.8094   -0.5507 C.3       3 UNK         0.0319 
     28 CB         23.3063   23.8184   -2.0839 C.3       3 UNK        -0.2001 
     29 N          24.6064   23.0542   -0.1424 N.am      3 UNK        -0.4354 
     30 C          24.7870   22.5521    1.0914 C.2       2 UNK         0.4964 
     31 O          23.9411   22.6210    1.9838 O.2       2 UNK        -0.5047 
     32 CA         26.1267   21.8519    1.3968 C.3       2 UNK         0.0288 
     33 CB         25.9904   20.3293    1.2342 C.3       2 UNK        -0.2113 
     34 N          27.2283   22.3260    0.5596 N.am      2 UNK        -0.4145 
     35 C          27.7493   23.5600    0.6149 C.2       1 UNK         0.5006 
     36 O          27.4547   24.3728    1.4909 O.2       1 UNK        -0.5103 
     37 C          28.8440   29.3707    1.2453 C.2       5 UNK         0.5055 
     38 O          29.2816   30.3718    1.8158 O.2       5 UNK        -0.5220 
     39 N          28.8631   29.2188   -0.0858 N.am      6 UNK        -0.4450 
     40 CA         29.3682   30.1979   -1.0557 C.3       6 UNK         0.0367 
     41 CB         29.0796   29.6902   -2.4770 C.3       6 UNK        -0.1929 
     42 C          30.8632   30.5312   -0.8961 C.2       6 UNK         0.5070 
     43 O          31.2861   31.6243   -1.2752 O.2       6 UNK        -0.5237 
     44 N          31.6330   29.6051   -0.3108 N.am      7 UNK        -0.4739 
     45 CA         33.0467   29.7494    0.0402 C.3       7 UNK         0.0276 
     46 CB         33.6469   28.3435    0.2095 C.3       7 UNK        -0.1927 
     47 C          33.2543   30.6502    1.2777 C.2       7 UNK         0.5013 
     48 O          33.7730   30.1976    2.2999 O.2       7 UNK        -0.5193 
     49 N          32.8321   31.9159    1.1511 N.am      8 UNK        -0.4253 
     50 CA         32.9940   33.0272    2.0980 C.3       8 UNK         0.0242 
     51 CB         34.4876   33.3894    2.2487 C.3       8 UNK        -0.2000 
     52 C          32.3040   32.8363    3.4648 C.2       8 UNK         0.4948 
     53 O          32.6905   33.5074    4.4243 O.2       8 UNK        -0.5275 
     54 N          31.2965   31.9525    3.5415 N.am      9 UNK        -0.4246 
     55 CA         30.4702   31.6016    4.7068 C.3       9 UNK         0.0261 
     56 CB         29.6301   32.8023    5.1853 C.3       9 UNK        -0.1959 
     57 C          31.2314   30.9503    5.8759 C.2       9 UNK         0.5033 
     58 O          30.8715   29.8496    6.2929 O.2       9 UNK        -0.5390 
     59 N          32.2509   31.6438    6.3931 N.am      10 UNK        -0.4215 
     60 CA         33.0459   31.2578    7.5601 C.3       10 UNK         0.0240 
     61 CB         33.8106   32.4906    8.0700 C.3       10 UNK        -0.1982 
     62 C          34.0175   30.0940    7.3019 C.2       10 UNK         0.4970 
     63 O          34.4196   29.4368    8.2627 O.2       10 UNK        -0.4916 
     64 N          34.3863   29.8672    6.0329 N.am      11 UNK        -0.4279 
     65 CA         35.3251   28.8231    5.5892 C.3       11 UNK         0.1003 
     66 C          36.8094   29.0527    6.0151 C.2       11 UNK         0.5709 
     67 N          37.2013   30.2594    6.4085 N.am      11 UNK        -0.7358 
     68 O          37.6297   28.1394    5.9645 O.2       11 UNK        -0.4999 
     69 C69        34.7930   27.3893    5.9012 C.3       12 UNK        -0.0954 
     70 S70        35.1720   26.1858    4.5870 S.3       12 UNK        -0.2268 
     71 C71        33.9272   26.6218    3.3346 C.3       12 UNK         0.0203 
     72 H72        27.3620   21.0201   -3.6158 H         1 UNK         0.0888 
     73 H73        27.8543   22.3971   -4.6052 H         1 UNK         0.0888 
     74 H74        29.0578   21.5084   -3.6687 H         1 UNK         0.0888 
     75 H75        29.6810   22.6131   -1.8104 H         1 UNK         0.3017 
     76 H76        28.3400   24.9081   -0.8970 H         1 UNK         0.0873 
     77 H77        30.0766   25.0228    0.8608 H         1 UNK         0.0745 
     78 H78        30.7218   24.7949   -0.7245 H         1 UNK         0.0745 
     79 H79        29.7742   22.4453    2.5436 H         1 UNK         0.0705 
     80 H80        31.4334   21.9716    2.8029 H         1 UNK         0.0705 
     81 H81        33.1018   24.2401    2.3259 H         1 UNK         0.1334 
     82 H82        31.7865   27.4721    4.8226 H         1 UNK         0.1417 
     83 H83        29.1642   24.1778    4.0272 H         1 UNK         0.1562 
     84 H84        29.7189   27.3425    6.0001 H         1 UNK         0.0748 
     85 H85        29.0421   25.7495    6.2095 H         1 UNK         0.0748 
     86 H86        29.4725   28.5762    3.8193 H         1 UNK         0.0940 
     87 H87        27.8919   29.3089    3.9291 H         1 UNK         0.0940 
     88 H88        28.7789   27.3090    1.7877 H         1 UNK         0.0703 
     89 H89        26.1522   28.3030    2.4176 H         1 UNK         0.3081 
     90 H90        24.4007   27.3004    1.4886 H         1 UNK         0.0719 
     91 H91        24.6465   28.2528   -1.4324 H         1 UNK         0.0809 
     92 H92        23.1607   28.2276   -0.4844 H         1 UNK         0.0809 
     93 H93        24.4661   29.3131   -0.0410 H         1 UNK         0.0809 
     94 H94        25.4078   25.4393   -0.4302 H         1 UNK         0.2990 
     95 H95        22.5352   23.3027   -0.1553 H         1 UNK         0.0690 
     96 H96        23.2652   22.8054   -2.4846 H         1 UNK         0.0788 
     97 H97        24.1498   24.3287   -2.5504 H         1 UNK         0.0788 
     98 H98        22.3985   24.3315   -2.4041 H         1 UNK         0.0788 
     99 H99        25.3510   22.9757   -0.8293 H         1 UNK         0.2993 
    100 H100       26.3773   22.0668    2.4381 H         1 UNK         0.0949 
    101 H101       25.1938   19.9393    1.8695 H         1 UNK         0.0767 
    102 H102       25.7529   20.0522    0.2062 H         1 UNK         0.0767 
    103 H103       26.9094   19.8159    1.5182 H         1 UNK         0.0767 
    104 H104       27.5341   21.7166   -0.1846 H         1 UNK         0.3013 
    105 H105       28.4222   28.3806   -0.4583 H         1 UNK         0.3121 
    106 H106       28.8136   31.1261   -0.9027 H         1 UNK         0.0774 
    107 H107       29.4156   30.4098   -3.2250 H         1 UNK         0.0815 
    108 H108       29.5886   28.7469   -2.6793 H         1 UNK         0.0815 
    109 H109       28.0118   29.5360   -2.6345 H         1 UNK         0.0815 
    110 H110       31.1852   28.7495   -0.0182 H         1 UNK         0.2987 
    111 H111       33.5669   30.2322   -0.7903 H         1 UNK         0.0949 
    112 H112       33.0795   27.7574    0.9310 H         1 UNK         0.0806 
    113 H113       33.6444   27.7980   -0.7344 H         1 UNK         0.0806 
    114 H114       34.6815   28.3889    0.5526 H         1 UNK         0.0806 
    115 H115       32.3588   32.1434    0.2799 H         1 UNK         0.3010 
    116 H116       32.4958   33.8818    1.6382 H         1 UNK         0.0829 
    117 H117       34.9570   33.5518    1.2784 H         1 UNK         0.0813 
    118 H118       34.6156   34.3077    2.8233 H         1 UNK         0.0813 
    119 H119       35.0433   32.6047    2.7633 H         1 UNK         0.0813 
    120 H120       31.0489   31.4513    2.6959 H         1 UNK         0.3038 
    121 H121       29.7660   30.8530    4.3493 H         1 UNK         0.0769 
    122 H122       29.0026   33.1879    4.3817 H         1 UNK         0.0811 
    123 H123       30.2496   33.6226    5.5484 H         1 UNK         0.0811 
    124 H124       28.9672   32.5118    6.0015 H         1 UNK         0.0811 
    125 H125       32.4970   32.5125    5.9186 H         1 UNK         0.3204 
    126 H126       32.3571   30.9349    8.3437 H         1 UNK         0.0748 
    127 H127       33.1267   33.2916    8.3518 H         1 UNK         0.0771 
    128 H128       34.4033   32.2477    8.9532 H         1 UNK         0.0771 
    129 H129       34.4930   32.8834    7.3151 H         1 UNK         0.0771 
    130 H130       34.0154   30.4619    5.3061 H         1 UNK         0.2980 
    131 H131       35.3459   28.9478    4.5067 H         1 UNK         0.0545 
    132 H132       38.1632   30.4023    6.6731 H         1 UNK         0.3459 
    133 H133       36.5478   31.0243    6.4454 H         1 UNK         0.3459 
    134 H134       35.1970   27.0189    6.8450 H         1 UNK         0.0616 
    135 H135       33.7125   27.3966    6.0400 H         1 UNK         0.0616 
    136 H136       33.7844   27.7019    3.3050 H         1 UNK         0.0634 
    137 H137       34.3260   26.3415    2.3590 H         1 UNK         0.0634 
@<TRIPOS>BOND
     1    1    2 1    
     2    1   72 1    
     3    1   73 1    
     4    1   74 1    
     5    2    3 2    
     6    2    4 am   BACKBONE|DICT|INTERRES
     7    4    5 1    
     8    4   75 1    
     9    5    6 1    
    10    5   35 1    
    11    5   76 1    
    12    6    7 1    
    13    6   77 1    
    14    6   78 1    
    15    7    8 1    
    16    8    9 1    
    17    8   79 1    
    18    8   80 1    
    19    9   10 ar   
    20    9   14 ar   
    21   10   11 ar   
    22   10   81 1    
    23   11   12 ar   
    24   11   71 1    
    25   12   13 ar   
    26   12   82 1    
    27   13   14 ar   
    28   13   15 1    
    29   14   83 1    
    30   15   16 1    
    31   15   84 1    
    32   15   85 1    
    33   16   17 1    
    34   17   18 1    
    35   17   86 1    
    36   17   87 1    
    37   18   19 1    
    38   18   37 1    
    39   18   88 1    
    40   19   20 am   BACKBONE|DICT|INTERRES
    41   19   89 1    
    42   20   21 2    
    43   20   22 1    
    44   22   23 1    
    45   22   24 1    
    46   22   90 1    
    47   23   91 1    
    48   23   92 1    
    49   23   93 1    
    50   24   25 am   BACKBONE|DICT|INTERRES
    51   24   94 1    
    52   25   26 2    
    53   25   27 1    
    54   27   28 1    
    55   27   29 1    
    56   27   95 1    
    57   28   96 1    
    58   28   97 1    
    59   28   98 1    
    60   29   30 am   BACKBONE|DICT|INTERRES
    61   29   99 1    
    62   30   31 2    
    63   30   32 1    
    64   32   33 1    
    65   32   34 1    
    66   32  100 1    
    67   33  101 1    
    68   33  102 1    
    69   33  103 1    
    70   34   35 am   BACKBONE|DICT|INTERRES
    71   34  104 1    
    72   35   36 2    
    73   37   38 2    
    74   37   39 am   BACKBONE|DICT|INTERRES
    75   39   40 1    
    76   39  105 1    
    77   40   41 1    
    78   40   42 1    
    79   40  106 1    
    80   41  107 1    
    81   41  108 1    
    82   41  109 1    
    83   42   43 2    
    84   42   44 am   BACKBONE|DICT|INTERRES
    85   44   45 1    
    86   44  110 1    
    87   45   46 1    
    88   45   47 1    
    89   45  111 1    
    90   46  112 1    
    91   46  113 1    
    92   46  114 1    
    93   47   48 2    
    94   47   49 am   BACKBONE|DICT|INTERRES
    95   49   50 1    
    96   49  115 1    
    97   50   51 1    
    98   50   52 1    
    99   50  116 1    
   100   51  117 1    
   101   51  118 1    
   102   51  119 1    
   103   52   53 2    
   104   52   54 am   BACKBONE|DICT|INTERRES
   105   54   55 1    
   106   54  120 1    
   107   55   56 1    
   108   55   57 1    
   109   55  121 1    
   110   56  122 1    
   111   56  123 1    
   112   56  124 1    
   113   57   58 2    
   114   57   59 am   BACKBONE|DICT|INTERRES
   115   59   60 1    
   116   59  125 1    
   117   60   61 1    
   118   60   62 1    
   119   60  126 1    
   120   61  127 1    
   121   61  128 1    
   122   61  129 1    
   123   62   63 2    
   124   62   64 am   BACKBONE|DICT|INTERRES
   125   64   65 1    
   126   64  130 1    
   127   65   66 1    
   128   65   69 1    
   129   65  131 1    
   130   66   67 am   BACKBONE|DICT|INTERRES
   131   66   68 2    
   132   67  132 1    
   133   67  133 1    
   134   69   70 1    
   135   69  134 1    
   136   69  135 1    
   137   70   71 1    
   138   71  136 1    
   139   71  137 1    
@<TRIPOS>SUBSTRUCTURE
     1 UNK         1 GROUP             0       ****    0 ROOT    
