@<TRIPOS>MOLECULE
3R136
137   139    1
SMALL
USER_CHARGES


@<TRIPOS>ATOM
      1 CA         27.2728   18.3304    1.6362 C.3       0 UNK        -0.1979 
      2 C          27.5159   18.9585    0.2715 C.2       0 UNK         0.4864 
      3 O          27.2471   18.3221   -0.7491 O.2       0 UNK        -0.5359 
      4 N          28.0278   20.1955    0.2513 N.am      1 UNK        -0.4318 
      5 CA         28.2714   20.9913   -0.9554 C.3       1 UNK         0.0824 
      6 C6         29.6290   21.7474   -0.8646 C.3       12 UNK        -0.0944 
      7 S7         29.6870   23.1205    0.3456 S.3       12 UNK        -0.2672 
      8 C8         30.6887   22.4050    1.6801 C.3       12 UNK         0.0333 
      9 C9         31.1371   23.4889    2.6460 C.ar      12 UNK        -0.0807 
     10 C10        32.3670   24.1243    2.4530 C.ar      12 UNK        -0.0894 
     11 C11        32.7940   25.1233    3.3311 C.ar      12 UNK        -0.0804 
     12 C12        31.9884   25.4724    4.4186 C.ar      12 UNK        -0.0824 
     13 C13        30.7540   24.8474    4.6223 C.ar      12 UNK        -0.0762 
     14 C14        30.3305   23.8584    3.7277 C.ar      12 UNK        -0.0782 
     15 C15        29.8969   25.2073    5.8296 C.3       12 UNK         0.0230 
     16 S16        28.7123   26.5462    5.4753 S.3       12 UNK        -0.2608 
     17 C17        29.7777   28.0346    5.5499 C.3       12 UNK        -0.0989 
     18 CA         29.6793   28.9417    4.2953 C.3       5 UNK         0.0716 
     19 N          29.7774   28.1636    3.0571 N.am      5 UNK        -0.4135 
     20 C          29.9435   28.6590    1.8248 C.2       4 UNK         0.5031 
     21 O          30.1045   29.8513    1.5801 O.2       4 UNK        -0.5229 
     22 CA         29.8332   27.6615    0.6565 C.3       4 UNK         0.0329 
     23 CB         31.2091   27.0699    0.3190 C.3       4 UNK        -0.2001 
     24 N          28.8707   26.5745    0.8816 N.am      4 UNK        -0.4303 
     25 C          27.5770   26.7436    1.1941 C.2       3 UNK         0.5044 
     26 O          27.0522   27.8472    1.3497 O.2       3 UNK        -0.5152 
     27 CA         26.7515   25.4608    1.3670 C.3       3 UNK         0.0319 
     28 CB         25.3416   25.7171    1.9409 C.3       3 UNK        -0.2001 
     29 N          26.6983   24.6953    0.1185 N.am      3 UNK        -0.4354 
     30 C          26.1293   25.0361   -1.0496 C.2       2 UNK         0.4964 
     31 O          25.4824   26.0696   -1.2210 O.2       2 UNK        -0.5047 
     32 CA         26.3237   24.0734   -2.2456 C.3       2 UNK         0.0288 
     33 CB         26.7741   24.8379   -3.5042 C.3       2 UNK        -0.2113 
     34 N          27.2870   22.9957   -1.9894 N.am      2 UNK        -0.4145 
     35 C          27.0522   21.8959   -1.2599 C.2       1 UNK         0.5006 
     36 O          25.9403   21.6212   -0.8010 O.2       1 UNK        -0.5103 
     37 C          28.4436   29.8677    4.3768 C.2       5 UNK         0.5055 
     38 O          28.4750   30.8176    5.1609 O.2       5 UNK        -0.5220 
     39 N          27.3849   29.5839    3.6056 N.am      6 UNK        -0.4450 
     40 CA         26.1890   30.4206    3.5024 C.3       6 UNK         0.0367 
     41 CB         24.9362   29.5285    3.5149 C.3       6 UNK        -0.1929 
     42 C          26.2302   31.2766    2.2282 C.2       6 UNK         0.5070 
     43 O          25.8305   32.4404    2.2709 O.2       6 UNK        -0.5237 
     44 N          26.6989   30.6900    1.1173 N.am      7 UNK        -0.4739 
     45 CA         26.7892   31.3380   -0.1936 C.3       7 UNK         0.0276 
     46 CB         27.0160   30.2644   -1.2700 C.3       7 UNK        -0.1927 
     47 C          27.8774   32.4237   -0.2776 C.2       7 UNK         0.5013 
     48 O          27.7005   33.3916   -1.0191 O.2       7 UNK        -0.5193 
     49 N          28.9757   32.2470    0.4641 N.am      8 UNK        -0.4253 
     50 CA         30.1200   33.1522    0.5272 C.3       8 UNK         0.0242 
     51 CB         31.1329   32.7779   -0.5767 C.3       8 UNK        -0.2000 
     52 C          30.7050   33.1170    1.9502 C.2       8 UNK         0.4948 
     53 O          29.9546   32.9338    2.9112 O.2       8 UNK        -0.5275 
     54 N          32.0236   33.3140    2.0747 N.am      9 UNK        -0.4246 
     55 CA         32.7617   33.1837    3.3313 C.3       9 UNK         0.0261 
     56 CB         34.0825   33.9639    3.2247 C.3       9 UNK        -0.1959 
     57 C          33.0360   31.7042    3.6458 C.2       9 UNK         0.5033 
     58 O          33.3090   30.9252    2.7287 O.2       9 UNK        -0.5390 
     59 N          32.9958   31.3527    4.9366 N.am      10 UNK        -0.4215 
     60 CA         33.3124   30.0134    5.4339 C.3       10 UNK         0.0240 
     61 CB         32.7862   29.8686    6.8712 C.3       10 UNK        -0.1982 
     62 C          34.8214   29.7250    5.3740 C.2       10 UNK         0.4970 
     63 O          35.6335   30.6299    5.5789 O.2       10 UNK        -0.4916 
     64 N          35.1522   28.4559    5.1229 N.am      11 UNK        -0.4279 
     65 CA         36.5190   27.9200    5.0411 C.3       11 UNK         0.1003 
     66 C          37.1695   27.5808    6.4151 C.2       11 UNK         0.5709 
     67 N          36.4629   27.6889    7.5345 N.am      11 UNK        -0.7358 
     68 O          38.3464   27.2310    6.4679 O.2       11 UNK        -0.4999 
     69 C69        36.5940   26.7368    4.0347 C.3       12 UNK        -0.0954 
     70 S70        35.3576   25.4250    4.3423 S.3       12 UNK        -0.2268 
     71 C71        34.1074   25.8503    3.0891 C.3       12 UNK         0.0203 
     72 H72        27.5710   18.9920    2.4494 H         1 UNK         0.0888 
     73 H73        26.2151   18.0985    1.7588 H         1 UNK         0.0888 
     74 H74        27.8385   17.4037    1.7291 H         1 UNK         0.0888 
     75 H75        28.1867   20.6775    1.1237 H         1 UNK         0.3017 
     76 H76        28.3502   20.3163   -1.8103 H         1 UNK         0.0873 
     77 H77        30.4235   21.0342   -0.6393 H         1 UNK         0.0745 
     78 H78        29.8982   22.1542   -1.8407 H         1 UNK         0.0745 
     79 H79        30.1129   21.6412    2.2044 H         1 UNK         0.0705 
     80 H80        31.5605   21.9021    1.2584 H         1 UNK         0.0705 
     81 H81        32.9854   23.8489    1.6094 H         1 UNK         0.1334 
     82 H82        32.3350   26.2246    5.1115 H         1 UNK         0.1417 
     83 H83        29.3783   23.3680    3.8795 H         1 UNK         0.1562 
     84 H84        30.5262   25.4862    6.6764 H         1 UNK         0.0748 
     85 H85        29.3369   24.3287    6.1535 H         1 UNK         0.0748 
     86 H86        30.8137   27.7332    5.6867 H         1 UNK         0.0940 
     87 H87        29.5340   28.5887    6.4590 H         1 UNK         0.0940 
     88 H88        30.5372   29.6160    4.3047 H         1 UNK         0.0703 
     89 H89        29.6362   27.1688    3.1608 H         1 UNK         0.3081 
     90 H90        29.4865   28.2198   -0.2142 H         1 UNK         0.0719 
     91 H91        31.9306   27.8592    0.1029 H         1 UNK         0.0809 
     92 H92        31.1625   26.4234   -0.5575 H         1 UNK         0.0809 
     93 H93        31.6062   26.4852    1.1469 H         1 UNK         0.0809 
     94 H94        29.2193   25.6322    0.7651 H         1 UNK         0.2990 
     95 H95        27.2870   24.8408    2.0881 H         1 UNK         0.0690 
     96 H96        24.7897   24.7858    2.0669 H         1 UNK         0.0788 
     97 H97        24.7505   26.3738    1.3020 H         1 UNK         0.0788 
     98 H98        25.4044   26.1931    2.9204 H         1 UNK         0.0788 
     99 H99        27.2223   23.8318    0.1288 H         1 UNK         0.2993 
    100 H100       25.3489   23.6255   -2.4507 H         1 UNK         0.0949 
    101 H101       26.0467   25.6014   -3.7837 H         1 UNK         0.0767 
    102 H102       27.7302   25.3398   -3.3498 H         1 UNK         0.0767 
    103 H103       26.8785   24.1692   -4.3590 H         1 UNK         0.0767 
    104 H104       28.2307   23.1617   -2.3094 H         1 UNK         0.3013 
    105 H105       27.4337   28.7997    2.9624 H         1 UNK         0.3121 
    106 H106       26.1238   31.0975    4.3569 H         1 UNK         0.0774 
    107 H107       24.0293   30.1330    3.4725 H         1 UNK         0.0815 
    108 H108       24.9116   28.8463    2.6646 H         1 UNK         0.0815 
    109 H109       24.8856   28.9306    4.4249 H         1 UNK         0.0815 
    110 H110       26.9462   29.7042    1.1574 H         1 UNK         0.2987 
    111 H111       25.8304   31.8215   -0.3935 H         1 UNK         0.0949 
    112 H112       26.2315   29.5072   -1.2505 H         1 UNK         0.0806 
    113 H113       27.0172   30.7063   -2.2673 H         1 UNK         0.0806 
    114 H114       27.9719   29.7583   -1.1372 H         1 UNK         0.0806 
    115 H115       29.0563   31.4231    1.0556 H         1 UNK         0.3010 
    116 H116       29.7778   34.1754    0.3588 H         1 UNK         0.0829 
    117 H117       30.6560   32.7514   -1.5567 H         1 UNK         0.0813 
    118 H118       31.9431   33.5044   -0.6434 H         1 UNK         0.0813 
    119 H119       31.5736   31.7957   -0.3977 H         1 UNK         0.0813 
    120 H120       32.5772   33.4075    1.2360 H         1 UNK         0.3038 
    121 H121       32.1669   33.6179    4.1383 H         1 UNK         0.0769 
    122 H122       34.7203   33.5723    2.4309 H         1 UNK         0.0811 
    123 H123       34.6484   33.9023    4.1553 H         1 UNK         0.0811 
    124 H124       33.9050   35.0205    3.0233 H         1 UNK         0.0811 
    125 H125       32.8176   32.0633    5.6317 H         1 UNK         0.3204 
    126 H126       32.7986   29.2869    4.8011 H         1 UNK         0.0748 
    127 H127       32.9441   28.8573    7.2481 H         1 UNK         0.0771 
    128 H128       33.2884   30.5538    7.5557 H         1 UNK         0.0771 
    129 H129       31.7157   30.0687    6.9249 H         1 UNK         0.0771 
    130 H130       34.4240   27.7685    5.0089 H         1 UNK         0.2980 
    131 H131       37.1500   28.7103    4.6297 H         1 UNK         0.0545 
    132 H132       35.5009   27.9824    7.5081 H         1 UNK         0.3459 
    133 H133       36.9017   27.4726    8.4156 H         1 UNK         0.3459 
    134 H134       36.4581   27.1170    3.0211 H         1 UNK         0.0616 
    135 H135       37.5868   26.2834    4.0369 H         1 UNK         0.0616 
    136 H136       33.9200   26.9247    3.0944 H         1 UNK         0.0634 
    137 H137       34.5050   25.6154    2.1004 H         1 UNK         0.0634 
@<TRIPOS>BOND
     1    1    2 1    
     2    1   72 1    
     3    1   73 1    
     4    1   74 1    
     5    2    3 2    
     6    2    4 am   BACKBONE|DICT|INTERRES
     7    4    5 1    
     8    4   75 1    
     9    5    6 1    
    10    5   35 1    
    11    5   76 1    
    12    6    7 1    
    13    6   77 1    
    14    6   78 1    
    15    7    8 1    
    16    8    9 1    
    17    8   79 1    
    18    8   80 1    
    19    9   10 ar   
    20    9   14 ar   
    21   10   11 ar   
    22   10   81 1    
    23   11   12 ar   
    24   11   71 1    
    25   12   13 ar   
    26   12   82 1    
    27   13   14 ar   
    28   13   15 1    
    29   14   83 1    
    30   15   16 1    
    31   15   84 1    
    32   15   85 1    
    33   16   17 1    
    34   17   18 1    
    35   17   86 1    
    36   17   87 1    
    37   18   19 1    
    38   18   37 1    
    39   18   88 1    
    40   19   20 am   BACKBONE|DICT|INTERRES
    41   19   89 1    
    42   20   21 2    
    43   20   22 1    
    44   22   23 1    
    45   22   24 1    
    46   22   90 1    
    47   23   91 1    
    48   23   92 1    
    49   23   93 1    
    50   24   25 am   BACKBONE|DICT|INTERRES
    51   24   94 1    
    52   25   26 2    
    53   25   27 1    
    54   27   28 1    
    55   27   29 1    
    56   27   95 1    
    57   28   96 1    
    58   28   97 1    
    59   28   98 1    
    60   29   30 am   BACKBONE|DICT|INTERRES
    61   29   99 1    
    62   30   31 2    
    63   30   32 1    
    64   32   33 1    
    65   32   34 1    
    66   32  100 1    
    67   33  101 1    
    68   33  102 1    
    69   33  103 1    
    70   34   35 am   BACKBONE|DICT|INTERRES
    71   34  104 1    
    72   35   36 2    
    73   37   38 2    
    74   37   39 am   BACKBONE|DICT|INTERRES
    75   39   40 1    
    76   39  105 1    
    77   40   41 1    
    78   40   42 1    
    79   40  106 1    
    80   41  107 1    
    81   41  108 1    
    82   41  109 1    
    83   42   43 2    
    84   42   44 am   BACKBONE|DICT|INTERRES
    85   44   45 1    
    86   44  110 1    
    87   45   46 1    
    88   45   47 1    
    89   45  111 1    
    90   46  112 1    
    91   46  113 1    
    92   46  114 1    
    93   47   48 2    
    94   47   49 am   BACKBONE|DICT|INTERRES
    95   49   50 1    
    96   49  115 1    
    97   50   51 1    
    98   50   52 1    
    99   50  116 1    
   100   51  117 1    
   101   51  118 1    
   102   51  119 1    
   103   52   53 2    
   104   52   54 am   BACKBONE|DICT|INTERRES
   105   54   55 1    
   106   54  120 1    
   107   55   56 1    
   108   55   57 1    
   109   55  121 1    
   110   56  122 1    
   111   56  123 1    
   112   56  124 1    
   113   57   58 2    
   114   57   59 am   BACKBONE|DICT|INTERRES
   115   59   60 1    
   116   59  125 1    
   117   60   61 1    
   118   60   62 1    
   119   60  126 1    
   120   61  127 1    
   121   61  128 1    
   122   61  129 1    
   123   62   63 2    
   124   62   64 am   BACKBONE|DICT|INTERRES
   125   64   65 1    
   126   64  130 1    
   127   65   66 1    
   128   65   69 1    
   129   65  131 1    
   130   66   67 am   BACKBONE|DICT|INTERRES
   131   66   68 2    
   132   67  132 1    
   133   67  133 1    
   134   69   70 1    
   135   69  134 1    
   136   69  135 1    
   137   70   71 1    
   138   71  136 1    
   139   71  137 1    
@<TRIPOS>SUBSTRUCTURE
     1 UNK         1 GROUP             0       ****    0 ROOT    
