@<TRIPOS>MOLECULE
3R136
137   139    1
SMALL
USER_CHARGES


@<TRIPOS>ATOM
      1 CA         24.8506   18.1830    2.9793 C.3       0 UNK        -0.1979 
      2 C          25.9517   18.3218    1.9380 C.2       0 UNK         0.4864 
      3 O          26.1368   17.4187    1.1201 O.2       0 UNK        -0.5359 
      4 N          26.6876   19.4405    1.9670 N.am      1 UNK        -0.4318 
      5 CA         27.7374   19.7734    0.9995 C.3       1 UNK         0.0824 
      6 C6         28.6800   20.8707    1.5562 C.3       12 UNK        -0.0944 
      7 S7         30.3220   20.8516    0.7582 S.3       12 UNK        -0.2672 
      8 C8         31.3988   21.3868    2.1257 C.3       12 UNK         0.0333 
      9 C9         31.2082   22.8636    2.4384 C.ar      12 UNK        -0.0807 
     10 C10        31.8998   23.8287    1.6995 C.ar      12 UNK        -0.0894 
     11 C11        31.7119   25.1894    1.9582 C.ar      12 UNK        -0.0804 
     12 C12        30.8432   25.5757    2.9787 C.ar      12 UNK        -0.0824 
     13 C13        30.1550   24.6257    3.7351 C.ar      12 UNK        -0.0762 
     14 C14        30.3403   23.2676    3.4589 C.ar      12 UNK        -0.0782 
     15 C15        29.2199   25.0657    4.8521 C.3       12 UNK         0.0230 
     16 S16        27.5403   25.3845    4.2254 S.3       12 UNK        -0.2608 
     17 C17        27.4325   27.2106    4.2509 C.3       12 UNK        -0.0989 
     18 CA         27.8866   27.8870    2.9325 C.3       5 UNK         0.0716 
     19 N          27.2306   27.3202    1.7533 N.am      5 UNK        -0.4135 
     20 C          27.7600   27.3232    0.5263 C.2       4 UNK         0.5031 
     21 O          28.8805   27.7637    0.2555 O.2       4 UNK        -0.5229 
     22 CA         26.8765   26.7678   -0.6009 C.3       4 UNK         0.0329 
     23 CB         26.2646   27.9146   -1.4222 C.3       4 UNK        -0.2001 
     24 N          27.6640   25.9063   -1.4820 N.am      4 UNK        -0.4303 
     25 C          27.9907   24.6419   -1.1914 C.2       3 UNK         0.5044 
     26 O          27.5861   24.0390   -0.1948 O.2       3 UNK        -0.5152 
     27 CA         28.9596   23.9510   -2.1631 C.3       3 UNK         0.0319 
     28 CB         30.4125   24.1726   -1.7152 C.3       3 UNK        -0.2001 
     29 N          28.6969   22.5142   -2.2180 N.am      3 UNK        -0.4354 
     30 C          27.7432   21.9412   -2.9651 C.2       2 UNK         0.4964 
     31 O          27.0427   22.5549   -3.7713 O.2       2 UNK        -0.5047 
     32 CA         27.5341   20.4256   -2.7886 C.3       2 UNK         0.0288 
     33 CB         28.3648   19.6426   -3.8186 C.3       2 UNK        -0.2113 
     34 N          27.8734   19.9622   -1.4404 N.am      2 UNK        -0.4145 
     35 C          27.1248   20.1946   -0.3535 C.2       1 UNK         0.5006 
     36 O          26.0184   20.7417   -0.3882 O.2       1 UNK        -0.5103 
     37 C          27.6382   29.4053    2.9782 C.2       5 UNK         0.5055 
     38 O          26.5399   29.8489    2.6298 O.2       5 UNK        -0.5220 
     39 N          28.6377   30.1704    3.4298 N.am      6 UNK        -0.4450 
     40 CA         28.5745   31.6215    3.5690 C.3       6 UNK         0.0367 
     41 CB         28.6349   32.3135    2.1927 C.3       6 UNK        -0.1929 
     42 C          29.7270   32.0906    4.4582 C.2       6 UNK         0.5070 
     43 O          30.8898   31.8172    4.1480 O.2       6 UNK        -0.5237 
     44 N          29.3934   32.8403    5.5163 N.am      7 UNK        -0.4739 
     45 CA         30.3599   33.4713    6.4211 C.3       7 UNK         0.0276 
     46 CB         29.6272   34.0366    7.6478 C.3       7 UNK        -0.1927 
     47 C          31.1889   34.5675    5.7314 C.2       7 UNK         0.5013 
     48 O          32.3713   34.7105    6.0381 O.2       7 UNK        -0.5193 
     49 N          30.5771   35.2745    4.7689 N.am      8 UNK        -0.4253 
     50 CA         31.2266   36.2795    3.9197 C.3       8 UNK         0.0242 
     51 CB         30.1583   37.0117    3.0916 C.3       8 UNK        -0.2000 
     52 C          32.3138   35.6946    2.9983 C.2       8 UNK         0.4948 
     53 O          33.2751   36.3954    2.6813 O.2       8 UNK        -0.5275 
     54 N          32.1565   34.4215    2.6089 N.am      9 UNK        -0.4246 
     55 CA         33.1460   33.6494    1.8534 C.3       9 UNK         0.0261 
     56 CB         32.4063   32.6348    0.9638 C.3       9 UNK        -0.1959 
     57 C          34.1465   32.9182    2.7688 C.2       9 UNK         0.5033 
     58 O          35.0829   32.3079    2.2511 O.2       9 UNK        -0.5390 
     59 N          33.9181   32.9589    4.0922 N.am      10 UNK        -0.4215 
     60 CA         34.6148   32.2158    5.1474 C.3       10 UNK         0.0240 
     61 CB         36.0635   32.7234    5.3119 C.3       10 UNK        -0.1982 
     62 C          34.5217   30.6884    4.9562 C.2       10 UNK         0.4970 
     63 O          35.4988   29.9821    5.2135 O.2       10 UNK        -0.4916 
     64 N          33.3548   30.2120    4.5020 N.am      11 UNK        -0.4279 
     65 CA         33.0824   28.8059    4.1958 C.3       11 UNK         0.1003 
     66 C          31.8567   28.3527    5.0228 C.2       11 UNK         0.5709 
     67 N          32.0568   27.5387    6.0497 N.am      11 UNK        -0.7358 
     68 O          30.7214   28.7228    4.7305 O.2       11 UNK        -0.4999 
     69 C69        32.9076   28.5963    2.6614 C.3       12 UNK        -0.0954 
     70 S70        33.7387   27.0859    2.0569 S.3       12 UNK        -0.2268 
     71 C71        32.4227   26.2428    1.1214 C.3       12 UNK         0.0203 
     72 H72        24.8082   19.0446    3.6456 H         1 UNK         0.0888 
     73 H73        23.8820   18.0854    2.4897 H         1 UNK         0.0888 
     74 H74        25.0176   17.2935    3.5862 H         1 UNK         0.0888 
     75 H75        26.4631   20.1629    2.6359 H         1 UNK         0.3017 
     76 H76        28.3219   18.8639    0.8401 H         1 UNK         0.0873 
     77 H77        28.2431   21.8679    1.4651 H         1 UNK         0.0745 
     78 H78        28.8306   20.7079    2.6243 H         1 UNK         0.0745 
     79 H79        32.4374   21.2033    1.8464 H         1 UNK         0.0705 
     80 H80        31.2112   20.7747    3.0093 H         1 UNK         0.0705 
     81 H81        32.5683   23.5178    0.9082 H         1 UNK         0.1334 
     82 H82        30.7103   26.6228    3.1832 H         1 UNK         0.1417 
     83 H83        29.8043   22.5262    4.0353 H         1 UNK         0.1562 
     84 H84        29.6194   25.9489    5.3510 H         1 UNK         0.0748 
     85 H85        29.1649   24.2893    5.6166 H         1 UNK         0.0748 
     86 H86        26.3925   27.4658    4.4652 H         1 UNK         0.0940 
     87 H87        28.0087   27.5958    5.0945 H         1 UNK         0.0940 
     88 H88        28.9588   27.7404    2.8269 H         1 UNK         0.0703 
     89 H89        26.2945   26.9699    1.8915 H         1 UNK         0.3081 
     90 H90        26.0619   26.1825   -0.1677 H         1 UNK         0.0719 
     91 H91        25.6574   28.5646   -0.7905 H         1 UNK         0.0809 
     92 H92        27.0327   28.5362   -1.8844 H         1 UNK         0.0809 
     93 H93        25.6175   27.5354   -2.2135 H         1 UNK         0.0809 
     94 H94        28.0806   26.3478   -2.2889 H         1 UNK         0.2990 
     95 H95        28.8323   24.3790   -3.1600 H         1 UNK         0.0690 
     96 H96        31.1182   23.7273   -2.4166 H         1 UNK         0.0788 
     97 H97        30.5933   23.7351   -0.7339 H         1 UNK         0.0788 
     98 H98        30.6470   25.2359   -1.6463 H         1 UNK         0.0788 
     99 H99        29.1831   21.9462   -1.5393 H         1 UNK         0.2993 
    100 H100       26.4774   20.2162   -2.9704 H         1 UNK         0.0949 
    101 H101       28.1744   18.5713   -3.7500 H         1 UNK         0.0767 
    102 H102       28.1150   19.9502   -4.8351 H         1 UNK         0.0767 
    103 H103       29.4351   19.8040   -3.6829 H         1 UNK         0.0767 
    104 H104       28.7706   19.5115   -1.3255 H         1 UNK         0.3013 
    105 H105       29.4919   29.7348    3.7803 H         1 UNK         0.3121 
    106 H106       27.6300   31.8824    4.0515 H         1 UNK         0.0774 
    107 H107       29.5076   31.9967    1.6221 H         1 UNK         0.0815 
    108 H108       27.7515   32.0904    1.5946 H         1 UNK         0.0815 
    109 H109       28.6843   33.3980    2.2969 H         1 UNK         0.0815 
    110 H110       28.4157   33.0129    5.7055 H         1 UNK         0.2987 
    111 H111       31.0551   32.7003    6.7619 H         1 UNK         0.0949 
    112 H112       29.0995   33.2524    8.1910 H         1 UNK         0.0806 
    113 H113       30.3310   34.4931    8.3455 H         1 UNK         0.0806 
    114 H114       28.9007   34.8017    7.3710 H         1 UNK         0.0806 
    115 H115       29.5997   35.0914    4.5941 H         1 UNK         0.3010 
    116 H116       31.7112   37.0063    4.5755 H         1 UNK         0.0829 
    117 H117       29.6220   36.3313    2.4288 H         1 UNK         0.0813 
    118 H118       30.6106   37.7843    2.4679 H         1 UNK         0.0813 
    119 H119       29.4268   37.5042    3.7326 H         1 UNK         0.0813 
    120 H120       31.3455   33.9120    2.9310 H         1 UNK         0.3038 
    121 H121       33.7166   34.3196    1.2068 H         1 UNK         0.0769 
    122 H122       31.6693   33.1232    0.3262 H         1 UNK         0.0811 
    123 H123       33.1038   32.1113    0.3085 H         1 UNK         0.0811 
    124 H124       31.8939   31.8769    1.5576 H         1 UNK         0.0811 
    125 H125       33.1418   33.5212    4.4181 H         1 UNK         0.3204 
    126 H126       34.0831   32.4349    6.0744 H         1 UNK         0.0748 
    127 H127       36.6768   32.4895    4.4411 H         1 UNK         0.0771 
    128 H128       36.0893   33.8030    5.4603 H         1 UNK         0.0771 
    129 H129       36.5423   32.2670    6.1791 H         1 UNK         0.0771 
    130 H130       32.5693   30.8440    4.3649 H         1 UNK         0.2980 
    131 H131       33.9315   28.2038    4.5249 H         1 UNK         0.0545 
    132 H132       32.9839   27.2287    6.2951 H         1 UNK         0.3459 
    133 H133       31.2686   27.2464    6.6036 H         1 UNK         0.3459 
    134 H134       33.3667   29.4218    2.1141 H         1 UNK         0.0616 
    135 H135       31.8591   28.6114    2.3593 H         1 UNK         0.0616 
    136 H136       31.6992   26.9645    0.7391 H         1 UNK         0.0634 
    137 H137       32.8740   25.7801    0.2424 H         1 UNK         0.0634 
@<TRIPOS>BOND
     1    1    2 1    
     2    1   72 1    
     3    1   73 1    
     4    1   74 1    
     5    2    3 2    
     6    2    4 am   BACKBONE|DICT|INTERRES
     7    4    5 1    
     8    4   75 1    
     9    5    6 1    
    10    5   35 1    
    11    5   76 1    
    12    6    7 1    
    13    6   77 1    
    14    6   78 1    
    15    7    8 1    
    16    8    9 1    
    17    8   79 1    
    18    8   80 1    
    19    9   10 ar   
    20    9   14 ar   
    21   10   11 ar   
    22   10   81 1    
    23   11   12 ar   
    24   11   71 1    
    25   12   13 ar   
    26   12   82 1    
    27   13   14 ar   
    28   13   15 1    
    29   14   83 1    
    30   15   16 1    
    31   15   84 1    
    32   15   85 1    
    33   16   17 1    
    34   17   18 1    
    35   17   86 1    
    36   17   87 1    
    37   18   19 1    
    38   18   37 1    
    39   18   88 1    
    40   19   20 am   BACKBONE|DICT|INTERRES
    41   19   89 1    
    42   20   21 2    
    43   20   22 1    
    44   22   23 1    
    45   22   24 1    
    46   22   90 1    
    47   23   91 1    
    48   23   92 1    
    49   23   93 1    
    50   24   25 am   BACKBONE|DICT|INTERRES
    51   24   94 1    
    52   25   26 2    
    53   25   27 1    
    54   27   28 1    
    55   27   29 1    
    56   27   95 1    
    57   28   96 1    
    58   28   97 1    
    59   28   98 1    
    60   29   30 am   BACKBONE|DICT|INTERRES
    61   29   99 1    
    62   30   31 2    
    63   30   32 1    
    64   32   33 1    
    65   32   34 1    
    66   32  100 1    
    67   33  101 1    
    68   33  102 1    
    69   33  103 1    
    70   34   35 am   BACKBONE|DICT|INTERRES
    71   34  104 1    
    72   35   36 2    
    73   37   38 2    
    74   37   39 am   BACKBONE|DICT|INTERRES
    75   39   40 1    
    76   39  105 1    
    77   40   41 1    
    78   40   42 1    
    79   40  106 1    
    80   41  107 1    
    81   41  108 1    
    82   41  109 1    
    83   42   43 2    
    84   42   44 am   BACKBONE|DICT|INTERRES
    85   44   45 1    
    86   44  110 1    
    87   45   46 1    
    88   45   47 1    
    89   45  111 1    
    90   46  112 1    
    91   46  113 1    
    92   46  114 1    
    93   47   48 2    
    94   47   49 am   BACKBONE|DICT|INTERRES
    95   49   50 1    
    96   49  115 1    
    97   50   51 1    
    98   50   52 1    
    99   50  116 1    
   100   51  117 1    
   101   51  118 1    
   102   51  119 1    
   103   52   53 2    
   104   52   54 am   BACKBONE|DICT|INTERRES
   105   54   55 1    
   106   54  120 1    
   107   55   56 1    
   108   55   57 1    
   109   55  121 1    
   110   56  122 1    
   111   56  123 1    
   112   56  124 1    
   113   57   58 2    
   114   57   59 am   BACKBONE|DICT|INTERRES
   115   59   60 1    
   116   59  125 1    
   117   60   61 1    
   118   60   62 1    
   119   60  126 1    
   120   61  127 1    
   121   61  128 1    
   122   61  129 1    
   123   62   63 2    
   124   62   64 am   BACKBONE|DICT|INTERRES
   125   64   65 1    
   126   64  130 1    
   127   65   66 1    
   128   65   69 1    
   129   65  131 1    
   130   66   67 am   BACKBONE|DICT|INTERRES
   131   66   68 2    
   132   67  132 1    
   133   67  133 1    
   134   69   70 1    
   135   69  134 1    
   136   69  135 1    
   137   70   71 1    
   138   71  136 1    
   139   71  137 1    
@<TRIPOS>SUBSTRUCTURE
     1 UNK         1 GROUP             0       ****    0 ROOT    
