@<TRIPOS>MOLECULE
3R136
137   139    1
SMALL
USER_CHARGES


@<TRIPOS>ATOM
      1 CA         31.6198   20.8340   -2.2283 C.3       0 UNK        -0.1979 
      2 C          30.8573   22.1268   -2.4781 C.2       0 UNK         0.4864 
      3 O          30.4543   22.3888   -3.6120 O.2       0 UNK        -0.5359 
      4 N          30.6600   22.9351   -1.4274 N.am      1 UNK        -0.4318 
      5 CA         29.9504   24.2210   -1.4773 C.3       1 UNK         0.0824 
      6 C6         30.1862   25.0695   -0.2022 C.3       12 UNK        -0.0944 
      7 S7         31.9458   25.4714    0.0710 S.3       12 UNK        -0.2672 
      8 C8         32.4104   24.3477    1.4293 C.3       12 UNK         0.0333 
      9 C9         31.7558   24.7384    2.7463 C.ar      12 UNK        -0.0807 
     10 C10        32.2958   25.7704    3.5192 C.ar      12 UNK        -0.0894 
     11 C11        31.6927   26.1452    4.7233 C.ar      12 UNK        -0.0804 
     12 C12        30.5503   25.4690    5.1606 C.ar      12 UNK        -0.0824 
     13 C13        30.0071   24.4279    4.4014 C.ar      12 UNK        -0.0762 
     14 C14        30.6179   24.0633    3.1987 C.ar      12 UNK        -0.0782 
     15 C15        28.7687   23.6877    4.8860 C.3       12 UNK         0.0230 
     16 S16        27.3054   24.7672    4.9643 S.3       12 UNK        -0.2608 
     17 C17        27.0308   25.1979    3.2068 C.3       12 UNK        -0.0989 
     18 CA         27.5119   26.6040    2.7441 C.3       5 UNK         0.0716 
     19 N          27.1160   26.8330    1.3412 N.am      5 UNK        -0.4135 
     20 C          27.3218   27.9470    0.6147 C.2       4 UNK         0.5031 
     21 O          27.9192   28.9330    1.0395 O.2       4 UNK        -0.5229 
     22 CA         26.7337   28.0246   -0.8063 C.3       4 UNK         0.0329 
     23 CB         27.8445   28.1782   -1.8586 C.3       4 UNK        -0.2001 
     24 N          25.8597   26.9007   -1.1532 N.am      4 UNK        -0.4303 
     25 C          24.6090   26.7520   -0.6873 C.2       3 UNK         0.5044 
     26 O          24.0687   27.5609    0.0683 O.2       3 UNK        -0.5152 
     27 CA         23.8338   25.4832   -1.0951 C.3       3 UNK         0.0319 
     28 CB         22.8739   25.7928   -2.2548 C.3       3 UNK        -0.2001 
     29 N          24.6806   24.3443   -1.4639 N.am      3 UNK        -0.4354 
     30 C          25.5710   23.7489   -0.6587 C.2       2 UNK         0.4964 
     31 O          25.7749   24.0989    0.5044 O.2       2 UNK        -0.5047 
     32 CA         26.4265   22.6141   -1.2555 C.3       2 UNK         0.0288 
     33 CB         26.0201   22.1915   -2.6867 C.3       2 UNK        -0.2113 
     34 N          27.8543   22.9526   -1.2093 N.am      2 UNK        -0.4145 
     35 C          28.4367   24.0495   -1.7235 C.2       1 UNK         0.5006 
     36 O          27.8285   24.9149   -2.3563 O.2       1 UNK        -0.5103 
     37 C          27.0624   27.7374    3.7037 C.2       5 UNK         0.5055 
     38 O          27.7660   28.0318    4.6709 O.2       5 UNK        -0.5220 
     39 N          25.9261   28.3835    3.3980 N.am      6 UNK        -0.4450 
     40 CA         25.3933   29.5472    4.1129 C.3       6 UNK         0.0367 
     41 CB         23.9914   29.8624    3.5656 C.3       6 UNK        -0.1929 
     42 C          26.2862   30.8061    4.0565 C.2       6 UNK         0.5070 
     43 O          26.1092   31.6922    4.8937 O.2       6 UNK        -0.5237 
     44 N          27.2096   30.8768    3.0890 N.am      7 UNK        -0.4739 
     45 CA         28.1930   31.9445    2.9342 C.3       7 UNK         0.0276 
     46 CB         27.8908   32.7351    1.6454 C.3       7 UNK        -0.1927 
     47 C          29.5902   31.3103    2.9486 C.2       7 UNK         0.5013 
     48 O          30.2070   31.2378    4.0121 O.2       7 UNK        -0.5193 
     49 N          30.0548   30.8592    1.7744 N.am      8 UNK        -0.4253 
     50 CA         31.2795   30.1033    1.4682 C.3       8 UNK         0.0242 
     51 CB         31.2393   28.7102    2.1198 C.3       8 UNK        -0.2000 
     52 C          32.6197   30.8011    1.7665 C.2       8 UNK         0.4948 
     53 O          33.5757   30.5808    1.0227 O.2       8 UNK        -0.5275 
     54 N          32.6944   31.5934    2.8437 N.am      9 UNK        -0.4246 
     55 CA         33.8258   32.3896    3.3492 C.3       9 UNK         0.0261 
     56 CB         34.2549   33.4579    2.3252 C.3       9 UNK        -0.1959 
     57 C          35.0452   31.5832    3.8402 C.2       9 UNK         0.5033 
     58 O          35.7189   32.0334    4.7679 O.2       9 UNK        -0.5390 
     59 N          35.2994   30.4099    3.2461 N.am      10 UNK        -0.4215 
     60 CA         36.4148   29.4968    3.5265 C.3       10 UNK         0.0240 
     61 CB         36.2994   28.2764    2.5981 C.3       10 UNK        -0.1982 
     62 C          36.5373   29.0382    4.9922 C.2       10 UNK         0.4970 
     63 O          37.6451   28.7250    5.4302 O.2       10 UNK        -0.4916 
     64 N          35.4136   29.0166    5.7186 N.am      11 UNK        -0.4279 
     65 CA         35.3517   28.7352    7.1605 C.3       11 UNK         0.1003 
     66 C          35.8275   29.9136    8.0621 C.2       11 UNK         0.5709 
     67 N          36.0697   31.1114    7.5405 N.am      11 UNK        -0.7358 
     68 O          35.9917   29.7323    9.2664 O.2       11 UNK        -0.4999 
     69 C69        33.9443   28.2391    7.5848 C.3       12 UNK        -0.0954 
     70 S70        33.4699   26.6827    6.7603 S.3       12 UNK        -0.2268 
     71 C71        32.2645   27.2890    5.5443 C.3       12 UNK         0.0203 
     72 H72        30.9985   19.9765   -2.4852 H         1 UNK         0.0888 
     73 H73        32.5166   20.8026   -2.8466 H         1 UNK         0.0888 
     74 H74        31.9235   20.7329   -1.1865 H         1 UNK         0.0888 
     75 H75        31.0386   22.6763   -0.5290 H         1 UNK         0.3017 
     76 H76        30.3445   24.7800   -2.3292 H         1 UNK         0.0873 
     77 H77        29.6583   26.0210   -0.2749 H         1 UNK         0.0745 
     78 H78        29.7693   24.5729    0.6729 H         1 UNK         0.0745 
     79 H79        32.1595   23.3208    1.1619 H         1 UNK         0.0705 
     80 H80        33.4951   24.3718    1.5448 H         1 UNK         0.0705 
     81 H81        33.1803   26.2895    3.1765 H         1 UNK         0.1334 
     82 H82        30.0774   25.7569    6.0898 H         1 UNK         0.1417 
     83 H83        30.2050   23.2537    2.6130 H         1 UNK         0.1562 
     84 H84        28.9633   23.2879    5.8821 H         1 UNK         0.0748 
     85 H85        28.5467   22.8289    4.2505 H         1 UNK         0.0748 
     86 H86        25.9574   25.1058    3.0310 H         1 UNK         0.0940 
     87 H87        27.4932   24.4311    2.5834 H         1 UNK         0.0940 
     88 H88        28.6037   26.6040    2.7607 H         1 UNK         0.0703 
     89 H89        26.6074   26.0723    0.9057 H         1 UNK         0.3081 
     90 H90        26.1318   28.9354   -0.8406 H         1 UNK         0.0719 
     91 H91        28.4287   29.0814   -1.6769 H         1 UNK         0.0809 
     92 H92        27.4314   28.2590   -2.8641 H         1 UNK         0.0809 
     93 H93        28.5402   27.3414   -1.8487 H         1 UNK         0.0809 
     94 H94        26.2618   26.1773   -1.7411 H         1 UNK         0.2990 
     95 H95        23.2387   25.1802   -0.2311 H         1 UNK         0.0690 
     96 H96        22.2449   24.9341   -2.4908 H         1 UNK         0.0788 
     97 H97        23.4127   26.0754   -3.1602 H         1 UNK         0.0788 
     98 H98        22.2078   26.6188   -2.0009 H         1 UNK         0.0788 
     99 H99        24.6045   24.0114   -2.4143 H         1 UNK         0.2993 
    100 H100       26.2844   21.7531   -0.6004 H         1 UNK         0.0949 
    101 H101       26.6235   21.3497   -3.0270 H         1 UNK         0.0767 
    102 H102       24.9785   21.8691   -2.7249 H         1 UNK         0.0767 
    103 H103       26.1504   22.9967   -3.4109 H         1 UNK         0.0767 
    104 H104       28.4378   22.3125   -0.6902 H         1 UNK         0.3013 
    105 H105       25.4144   28.0860    2.5791 H         1 UNK         0.3121 
    106 H106       25.2967   29.2705    5.1648 H         1 UNK         0.0774 
    107 H107       24.0213   30.1188    2.5057 H         1 UNK         0.0815 
    108 H108       23.5461   30.7073    4.0930 H         1 UNK         0.0815 
    109 H109       23.3162   29.0153    3.6880 H         1 UNK         0.0815 
    110 H110       27.3296   30.0826    2.4641 H         1 UNK         0.2987 
    111 H111       28.1525   32.6384    3.7768 H         1 UNK         0.0949 
    112 H112       27.7998   32.0883    0.7720 H         1 UNK         0.0806 
    113 H113       26.9542   33.2847    1.7408 H         1 UNK         0.0806 
    114 H114       28.6728   33.4676    1.4400 H         1 UNK         0.0806 
    115 H115       29.4301   30.9612    0.9866 H         1 UNK         0.3010 
    116 H116       31.2589   29.9507    0.3879 H         1 UNK         0.0829 
    117 H117       31.1507   28.7701    3.2040 H         1 UNK         0.0813 
    118 H118       30.3989   28.1231    1.7508 H         1 UNK         0.0813 
    119 H119       32.1443   28.1471    1.8903 H         1 UNK         0.0813 
    120 H120       31.8521   31.6224    3.4181 H         1 UNK         0.3038 
    121 H121       33.4386   32.9141    4.2242 H         1 UNK         0.0769 
    122 H122       35.0222   34.1111    2.7431 H         1 UNK         0.0811 
    123 H123       34.6681   33.0131    1.4194 H         1 UNK         0.0811 
    124 H124       33.4149   34.0895    2.0359 H         1 UNK         0.0811 
    125 H125       34.7192   30.1892    2.4397 H         1 UNK         0.3204 
    126 H126       37.3346   30.0309    3.2804 H         1 UNK         0.0748 
    127 H127       37.1298   27.5857    2.7524 H         1 UNK         0.0771 
    128 H128       35.3764   27.7223    2.7744 H         1 UNK         0.0771 
    129 H129       36.3172   28.5721    1.5488 H         1 UNK         0.0771 
    130 H130       34.5536   29.3071    5.2819 H         1 UNK         0.2980 
    131 H131       36.0507   27.9211    7.3621 H         1 UNK         0.0545 
    132 H132       35.9483   31.2943    6.5489 H         1 UNK         0.3459 
    133 H133       36.3815   31.8528    8.1468 H         1 UNK         0.3459 
    134 H134       33.9153   28.0470    8.6589 H         1 UNK         0.0616 
    135 H135       33.1918   29.0068    7.3960 H         1 UNK         0.0616 
    136 H136       31.4598   27.8178    6.0579 H         1 UNK         0.0634 
    137 H137       32.7465   28.0162    4.8899 H         1 UNK         0.0634 
@<TRIPOS>BOND
     1    1    2 1    
     2    1   72 1    
     3    1   73 1    
     4    1   74 1    
     5    2    3 2    
     6    2    4 am   BACKBONE|DICT|INTERRES
     7    4    5 1    
     8    4   75 1    
     9    5    6 1    
    10    5   35 1    
    11    5   76 1    
    12    6    7 1    
    13    6   77 1    
    14    6   78 1    
    15    7    8 1    
    16    8    9 1    
    17    8   79 1    
    18    8   80 1    
    19    9   10 ar   
    20    9   14 ar   
    21   10   11 ar   
    22   10   81 1    
    23   11   12 ar   
    24   11   71 1    
    25   12   13 ar   
    26   12   82 1    
    27   13   14 ar   
    28   13   15 1    
    29   14   83 1    
    30   15   16 1    
    31   15   84 1    
    32   15   85 1    
    33   16   17 1    
    34   17   18 1    
    35   17   86 1    
    36   17   87 1    
    37   18   19 1    
    38   18   37 1    
    39   18   88 1    
    40   19   20 am   BACKBONE|DICT|INTERRES
    41   19   89 1    
    42   20   21 2    
    43   20   22 1    
    44   22   23 1    
    45   22   24 1    
    46   22   90 1    
    47   23   91 1    
    48   23   92 1    
    49   23   93 1    
    50   24   25 am   BACKBONE|DICT|INTERRES
    51   24   94 1    
    52   25   26 2    
    53   25   27 1    
    54   27   28 1    
    55   27   29 1    
    56   27   95 1    
    57   28   96 1    
    58   28   97 1    
    59   28   98 1    
    60   29   30 am   BACKBONE|DICT|INTERRES
    61   29   99 1    
    62   30   31 2    
    63   30   32 1    
    64   32   33 1    
    65   32   34 1    
    66   32  100 1    
    67   33  101 1    
    68   33  102 1    
    69   33  103 1    
    70   34   35 am   BACKBONE|DICT|INTERRES
    71   34  104 1    
    72   35   36 2    
    73   37   38 2    
    74   37   39 am   BACKBONE|DICT|INTERRES
    75   39   40 1    
    76   39  105 1    
    77   40   41 1    
    78   40   42 1    
    79   40  106 1    
    80   41  107 1    
    81   41  108 1    
    82   41  109 1    
    83   42   43 2    
    84   42   44 am   BACKBONE|DICT|INTERRES
    85   44   45 1    
    86   44  110 1    
    87   45   46 1    
    88   45   47 1    
    89   45  111 1    
    90   46  112 1    
    91   46  113 1    
    92   46  114 1    
    93   47   48 2    
    94   47   49 am   BACKBONE|DICT|INTERRES
    95   49   50 1    
    96   49  115 1    
    97   50   51 1    
    98   50   52 1    
    99   50  116 1    
   100   51  117 1    
   101   51  118 1    
   102   51  119 1    
   103   52   53 2    
   104   52   54 am   BACKBONE|DICT|INTERRES
   105   54   55 1    
   106   54  120 1    
   107   55   56 1    
   108   55   57 1    
   109   55  121 1    
   110   56  122 1    
   111   56  123 1    
   112   56  124 1    
   113   57   58 2    
   114   57   59 am   BACKBONE|DICT|INTERRES
   115   59   60 1    
   116   59  125 1    
   117   60   61 1    
   118   60   62 1    
   119   60  126 1    
   120   61  127 1    
   121   61  128 1    
   122   61  129 1    
   123   62   63 2    
   124   62   64 am   BACKBONE|DICT|INTERRES
   125   64   65 1    
   126   64  130 1    
   127   65   66 1    
   128   65   69 1    
   129   65  131 1    
   130   66   67 am   BACKBONE|DICT|INTERRES
   131   66   68 2    
   132   67  132 1    
   133   67  133 1    
   134   69   70 1    
   135   69  134 1    
   136   69  135 1    
   137   70   71 1    
   138   71  136 1    
   139   71  137 1    
@<TRIPOS>SUBSTRUCTURE
     1 UNK         1 GROUP             0       ****    0 ROOT    
