@<TRIPOS>MOLECULE
3R136
137   139    1
SMALL
USER_CHARGES


@<TRIPOS>ATOM
      1 CA         26.7754   18.6271   -0.4989 C.3       0 UNK        -0.1979 
      2 C          26.8463   19.8106   -1.4528 C.2       0 UNK         0.4864 
      3 O          26.1303   19.8325   -2.4556 O.2       0 UNK        -0.5359 
      4 N          27.7100   20.7887   -1.1538 N.am      1 UNK        -0.4318 
      5 CA         27.8607   22.0378   -1.9049 C.3       1 UNK         0.0824 
      6 C6         29.2047   22.7462   -1.5819 C.3       12 UNK        -0.0944 
      7 S7         29.5155   23.0027    0.1999 S.3       12 UNK        -0.2672 
      8 C8         31.1118   23.8918    0.1426 C.3       12 UNK         0.0333 
      9 C9         31.7517   24.2042    1.4999 C.ar      12 UNK        -0.0807 
     10 C10        32.9013   25.0033    1.5231 C.ar      12 UNK        -0.0894 
     11 C11        33.5521   25.2951    2.7269 C.ar      12 UNK        -0.0804 
     12 C12        33.0423   24.7816    3.9215 C.ar      12 UNK        -0.0824 
     13 C13        31.8733   24.0207    3.9253 C.ar      12 UNK        -0.0762 
     14 C14        31.2449   23.7181    2.7137 C.ar      12 UNK        -0.0782 
     15 C15        31.2771   23.5467    5.2421 C.3       12 UNK         0.0230 
     16 S16        29.6203   24.2495    5.5254 S.3       12 UNK        -0.2608 
     17 C17        29.9485   26.0404    5.7267 C.3       12 UNK        -0.0989 
     18 CA         29.9785   26.8604    4.4014 C.3       5 UNK         0.0716 
     19 N          28.9470   26.4896    3.4231 N.am      5 UNK        -0.4135 
     20 C          27.6156   26.5065    3.5484 C.2       4 UNK         0.5031 
     21 O          27.0220   27.0141    4.5030 O.2       4 UNK        -0.5229 
     22 CA         26.8203   25.8222    2.4168 C.3       4 UNK         0.0329 
     23 CB         25.3567   25.5551    2.8129 C.3       4 UNK        -0.2001 
     24 N          26.8307   26.5462    1.1429 N.am      4 UNK        -0.4303 
     25 C          27.8902   26.7412    0.3484 C.2       3 UNK         0.5044 
     26 O          29.0374   26.4155    0.6467 O.2       3 UNK        -0.5152 
     27 CA         27.5979   27.3387   -1.0399 C.3       3 UNK         0.0319 
     28 CB         28.8682   27.8423   -1.7484 C.3       3 UNK        -0.2001 
     29 N          26.9635   26.3268   -1.8811 N.am      3 UNK        -0.4354 
     30 C          25.6680   25.9859   -1.8406 C.2       2 UNK         0.4964 
     31 O          24.8285   26.5682   -1.1524 O.2       2 UNK        -0.5047 
     32 CA         25.2525   24.7674   -2.6827 C.3       2 UNK         0.0288 
     33 CB         24.8808   25.1964   -4.1114 C.3       2 UNK        -0.2113 
     34 N          26.3007   23.7415   -2.7335 N.am      2 UNK        -0.4145 
     35 C          26.6501   22.9723   -1.6911 C.2       1 UNK         0.5006 
     36 O          26.0758   23.0008   -0.5987 O.2       1 UNK        -0.5103 
     37 C          30.0313   28.3767    4.6765 C.2       5 UNK         0.5055 
     38 O          31.0654   29.0064    4.4492 O.2       5 UNK        -0.5220 
     39 N          28.9104   28.9485    5.1331 N.am      6 UNK        -0.4450 
     40 CA         28.7261   30.3856    5.3373 C.3       6 UNK         0.0367 
     41 CB         27.4364   30.6389    6.1335 C.3       6 UNK        -0.1929 
     42 C          28.7048   31.1346    3.9977 C.2       6 UNK         0.5070 
     43 O          29.4279   32.1168    3.8274 O.2       6 UNK        -0.5237 
     44 N          27.9201   30.6043    3.0495 N.am      7 UNK        -0.4739 
     45 CA         27.7742   31.1167    1.6844 C.3       7 UNK         0.0276 
     46 CB         26.5430   30.4651    1.0362 C.3       7 UNK        -0.1927 
     47 C          29.0286   30.9461    0.8056 C.2       7 UNK         0.5013 
     48 O          29.1193   31.5975   -0.2339 O.2       7 UNK        -0.5193 
     49 N          29.9939   30.1276    1.2478 N.am      8 UNK        -0.4253 
     50 CA         31.3220   29.9718    0.6443 C.3       8 UNK         0.0242 
     51 CB         31.8080   28.5268    0.8636 C.3       8 UNK        -0.2000 
     52 C          32.3279   31.0212    1.1683 C.2       8 UNK         0.4948 
     53 O          33.5194   30.7280    1.2668 O.2       8 UNK        -0.5275 
     54 N          31.8323   32.2271    1.4865 N.am      9 UNK        -0.4246 
     55 CA         32.5489   33.3736    2.0545 C.3       9 UNK         0.0261 
     56 CB         33.6120   33.9131    1.0722 C.3       9 UNK        -0.1959 
     57 C          33.1048   33.0834    3.4618 C.2       9 UNK         0.5033 
     58 O          34.2641   33.3967    3.7402 O.2       9 UNK        -0.5390 
     59 N          32.2438   32.5186    4.3228 N.am      10 UNK        -0.4215 
     60 CA         32.4660   32.2194    5.7411 C.3       10 UNK         0.0240 
     61 CB         32.5347   33.5266    6.5599 C.3       10 UNK        -0.1982 
     62 C          33.6674   31.2902    5.9936 C.2       10 UNK         0.4970 
     63 O          34.6509   31.7087    6.6093 O.2       10 UNK        -0.4916 
     64 N          33.5589   30.0388    5.5296 N.am      11 UNK        -0.4279 
     65 CA         34.5086   28.9608    5.8472 C.3       11 UNK         0.1003 
     66 C          34.5416   28.6345    7.3674 C.2       11 UNK         0.5709 
     67 N          35.7090   28.3138    7.9088 N.am      11 UNK        -0.7358 
     68 O          33.5153   28.6257    8.0455 O.2       11 UNK        -0.4999 
     69 C69        34.2040   27.6746    5.0423 C.3       12 UNK        -0.0954 
     70 S70        34.4724   27.8696    3.2512 S.3       12 UNK        -0.2268 
     71 C71        34.8114   26.1530    2.7395 C.3       12 UNK         0.0203 
     72 H72        27.4701   18.7333    0.3342 H         1 UNK         0.0888 
     73 H73        25.7691   18.5341   -0.0913 H         1 UNK         0.0888 
     74 H74        27.0171   17.7046   -1.0263 H         1 UNK         0.0888 
     75 H75        28.2475   20.7415   -0.2995 H         1 UNK         0.3017 
     76 H76        27.8811   21.7729   -2.9646 H         1 UNK         0.0873 
     77 H77        30.0266   22.1467   -1.9770 H         1 UNK         0.0745 
     78 H78        29.2703   23.7080   -2.0943 H         1 UNK         0.0745 
     79 H79        31.8171   23.2984   -0.4406 H         1 UNK         0.0705 
     80 H80        30.9643   24.8258   -0.4019 H         1 UNK         0.0705 
     81 H81        33.2969   25.3948    0.5956 H         1 UNK         0.1334 
     82 H82        33.5424   24.9932    4.8552 H         1 UNK         0.1417 
     83 H83        30.3497   23.1141    2.7382 H         1 UNK         0.1562 
     84 H84        31.9227   23.7984    6.0849 H         1 UNK         0.0748 
     85 H85        31.2014   22.4586    5.2261 H         1 UNK         0.0748 
     86 H86        30.8866   26.1702    6.2699 H         1 UNK         0.0940 
     87 H87        29.1686   26.4210    6.3889 H         1 UNK         0.0940 
     88 H88        30.9166   26.6267    3.8985 H         1 UNK         0.0703 
     89 H89        29.3023   26.1637    2.5269 H         1 UNK         0.3081 
     90 H90        27.2916   24.8517    2.2438 H         1 UNK         0.0719 
     91 H91        24.8013   26.4827    2.9571 H         1 UNK         0.0809 
     92 H92        24.8416   24.9687    2.0514 H         1 UNK         0.0809 
     93 H93        25.3006   24.9919    3.7455 H         1 UNK         0.0809 
     94 H94        25.9244   26.8024    0.7706 H         1 UNK         0.2990 
     95 H95        26.9201   28.1857   -0.9217 H         1 UNK         0.0690 
     96 H96        28.6356   28.2677   -2.7247 H         1 UNK         0.0788 
     97 H97        29.5985   27.0452   -1.8947 H         1 UNK         0.0788 
     98 H98        29.3521   28.6247   -1.1657 H         1 UNK         0.0788 
     99 H99        27.5817   25.7766   -2.4579 H         1 UNK         0.2993 
    100 H100       24.3673   24.3304   -2.2147 H         1 UNK         0.0949 
    101 H101       24.5168   24.3516   -4.6968 H         1 UNK         0.0767 
    102 H102       24.0873   25.9451   -4.0987 H         1 UNK         0.0767 
    103 H103       25.7304   25.6310   -4.6398 H         1 UNK         0.0767 
    104 H104       26.8003   23.6451   -3.6063 H         1 UNK         0.3013 
    105 H105       28.0894   28.3507    5.2148 H         1 UNK         0.3121 
    106 H106       29.5631   30.7583    5.9268 H         1 UNK         0.0774 
    107 H107       27.2810   31.7068    6.2938 H         1 UNK         0.0815 
    108 H108       26.5552   30.2537    5.6189 H         1 UNK         0.0815 
    109 H109       27.4808   30.1685    7.1159 H         1 UNK         0.0815 
    110 H110       27.3721   29.7903    3.2886 H         1 UNK         0.2987 
    111 H111       27.5898   32.1916    1.7498 H         1 UNK         0.0949 
    112 H112       26.5921   29.3791    1.0812 H         1 UNK         0.0806 
    113 H113       25.6260   30.7747    1.5380 H         1 UNK         0.0806 
    114 H114       26.4464   30.7506   -0.0125 H         1 UNK         0.0806 
    115 H115       29.8569   29.6734    2.1390 H         1 UNK         0.3010 
    116 H116       31.2483   30.1316   -0.4334 H         1 UNK         0.0829 
    117 H117       31.1582   27.8088    0.3677 H         1 UNK         0.0813 
    118 H118       32.8084   28.3737    0.4571 H         1 UNK         0.0813 
    119 H119       31.8436   28.2694    1.9218 H         1 UNK         0.0813 
    120 H120       30.8387   32.3605    1.3583 H         1 UNK         0.3038 
    121 H121       31.8029   34.1592    2.1850 H         1 UNK         0.0769 
    122 H122       34.0477   34.8418    1.4427 H         1 UNK         0.0811 
    123 H123       33.1785   34.1265    0.0953 H         1 UNK         0.0811 
    124 H124       34.4307   33.2072    0.9298 H         1 UNK         0.0811 
    125 H125       31.3046   32.3139    3.9863 H         1 UNK         0.3204 
    126 H126       31.5882   31.6745    6.0839 H         1 UNK         0.0748 
    127 H127       32.6284   33.3148    7.6258 H         1 UNK         0.0771 
    128 H128       33.3891   34.1414    6.2743 H         1 UNK         0.0771 
    129 H129       31.6329   34.1242    6.4269 H         1 UNK         0.0771 
    130 H130       32.7127   29.7541    5.0424 H         1 UNK         0.2980 
    131 H131       35.5016   29.3136    5.5611 H         1 UNK         0.0545 
    132 H132       36.5548   28.3066    7.3601 H         1 UNK         0.3459 
    133 H133       35.7468   28.0838    8.8895 H         1 UNK         0.3459 
    134 H134       34.8463   26.8620    5.3867 H         1 UNK         0.0616 
    135 H135       33.1747   27.3543    5.2112 H         1 UNK         0.0616 
    136 H136       35.5608   25.7109    3.3975 H         1 UNK         0.0634 
    137 H137       35.2587   26.1741    1.7447 H         1 UNK         0.0634 
@<TRIPOS>BOND
     1    1    2 1    
     2    1   72 1    
     3    1   73 1    
     4    1   74 1    
     5    2    3 2    
     6    2    4 am   BACKBONE|DICT|INTERRES
     7    4    5 1    
     8    4   75 1    
     9    5    6 1    
    10    5   35 1    
    11    5   76 1    
    12    6    7 1    
    13    6   77 1    
    14    6   78 1    
    15    7    8 1    
    16    8    9 1    
    17    8   79 1    
    18    8   80 1    
    19    9   10 ar   
    20    9   14 ar   
    21   10   11 ar   
    22   10   81 1    
    23   11   12 ar   
    24   11   71 1    
    25   12   13 ar   
    26   12   82 1    
    27   13   14 ar   
    28   13   15 1    
    29   14   83 1    
    30   15   16 1    
    31   15   84 1    
    32   15   85 1    
    33   16   17 1    
    34   17   18 1    
    35   17   86 1    
    36   17   87 1    
    37   18   19 1    
    38   18   37 1    
    39   18   88 1    
    40   19   20 am   BACKBONE|DICT|INTERRES
    41   19   89 1    
    42   20   21 2    
    43   20   22 1    
    44   22   23 1    
    45   22   24 1    
    46   22   90 1    
    47   23   91 1    
    48   23   92 1    
    49   23   93 1    
    50   24   25 am   BACKBONE|DICT|INTERRES
    51   24   94 1    
    52   25   26 2    
    53   25   27 1    
    54   27   28 1    
    55   27   29 1    
    56   27   95 1    
    57   28   96 1    
    58   28   97 1    
    59   28   98 1    
    60   29   30 am   BACKBONE|DICT|INTERRES
    61   29   99 1    
    62   30   31 2    
    63   30   32 1    
    64   32   33 1    
    65   32   34 1    
    66   32  100 1    
    67   33  101 1    
    68   33  102 1    
    69   33  103 1    
    70   34   35 am   BACKBONE|DICT|INTERRES
    71   34  104 1    
    72   35   36 2    
    73   37   38 2    
    74   37   39 am   BACKBONE|DICT|INTERRES
    75   39   40 1    
    76   39  105 1    
    77   40   41 1    
    78   40   42 1    
    79   40  106 1    
    80   41  107 1    
    81   41  108 1    
    82   41  109 1    
    83   42   43 2    
    84   42   44 am   BACKBONE|DICT|INTERRES
    85   44   45 1    
    86   44  110 1    
    87   45   46 1    
    88   45   47 1    
    89   45  111 1    
    90   46  112 1    
    91   46  113 1    
    92   46  114 1    
    93   47   48 2    
    94   47   49 am   BACKBONE|DICT|INTERRES
    95   49   50 1    
    96   49  115 1    
    97   50   51 1    
    98   50   52 1    
    99   50  116 1    
   100   51  117 1    
   101   51  118 1    
   102   51  119 1    
   103   52   53 2    
   104   52   54 am   BACKBONE|DICT|INTERRES
   105   54   55 1    
   106   54  120 1    
   107   55   56 1    
   108   55   57 1    
   109   55  121 1    
   110   56  122 1    
   111   56  123 1    
   112   56  124 1    
   113   57   58 2    
   114   57   59 am   BACKBONE|DICT|INTERRES
   115   59   60 1    
   116   59  125 1    
   117   60   61 1    
   118   60   62 1    
   119   60  126 1    
   120   61  127 1    
   121   61  128 1    
   122   61  129 1    
   123   62   63 2    
   124   62   64 am   BACKBONE|DICT|INTERRES
   125   64   65 1    
   126   64  130 1    
   127   65   66 1    
   128   65   69 1    
   129   65  131 1    
   130   66   67 am   BACKBONE|DICT|INTERRES
   131   66   68 2    
   132   67  132 1    
   133   67  133 1    
   134   69   70 1    
   135   69  134 1    
   136   69  135 1    
   137   70   71 1    
   138   71  136 1    
   139   71  137 1    
@<TRIPOS>SUBSTRUCTURE
     1 UNK         1 GROUP             0       ****    0 ROOT    
