@<TRIPOS>MOLECULE
3R136
137   139    1
SMALL
USER_CHARGES


@<TRIPOS>ATOM
      1 CA         31.5066   22.9072   -3.5673 C.3       0 UNK        -0.1979 
      2 C          30.4517   23.6766   -2.7865 C.2       0 UNK         0.4864 
      3 O          29.3449   23.8796   -3.2870 O.2       0 UNK        -0.5359 
      4 N          30.7817   24.1030   -1.5597 N.am      1 UNK        -0.4318 
      5 CA         29.8929   24.8546   -0.6655 C.3       1 UNK         0.0824 
      6 C6         30.6641   25.5892    0.4626 C.3       12 UNK        -0.0944 
      7 S7         31.8798   24.5654    1.3700 S.3       12 UNK        -0.2672 
      8 C8         30.8963   23.7595    2.6833 C.3       12 UNK         0.0333 
      9 C9         30.0827   24.7227    3.5402 C.ar      12 UNK        -0.0807 
     10 C10        30.7022   25.7990    4.1799 C.ar      12 UNK        -0.0894 
     11 C11        29.9684   26.6570    5.0034 C.ar      12 UNK        -0.0804 
     12 C12        28.6007   26.4319    5.1903 C.ar      12 UNK        -0.0824 
     13 C13        27.9690   25.3510    4.5650 C.ar      12 UNK        -0.0762 
     14 C14        28.7148   24.5056    3.7371 C.ar      12 UNK        -0.0782 
     15 C15        26.4929   25.0654    4.8193 C.3       12 UNK         0.0230 
     16 S16        25.4571   25.3207    3.3419 S.3       12 UNK        -0.2608 
     17 C17        25.5984   27.1241    3.1026 C.3       12 UNK        -0.0989 
     18 CA         26.6125   27.4636    1.9812 C.3       5 UNK         0.0716 
     19 N          26.2184   26.9332    0.6686 N.am      5 UNK        -0.4135 
     20 C          25.2507   27.3943   -0.1400 C.2       4 UNK         0.5031 
     21 O          24.5008   28.3322    0.1336 O.2       4 UNK        -0.5229 
     22 CA         25.1091   26.7085   -1.5083 C.3       4 UNK         0.0329 
     23 CB         26.1610   27.2531   -2.4896 C.3       4 UNK        -0.2001 
     24 N          25.2201   25.2514   -1.4405 N.am      4 UNK        -0.4303 
     25 C          24.2640   24.4319   -0.9780 C.2       3 UNK         0.5044 
     26 O          23.1765   24.8116   -0.5440 O.2       3 UNK        -0.5152 
     27 CA         24.5882   22.9334   -1.0058 C.3       3 UNK         0.0319 
     28 CB         24.5090   22.3942   -2.4499 C.3       3 UNK        -0.2001 
     29 N          25.9085   22.7324   -0.4138 N.am      3 UNK        -0.4354 
     30 C          26.5613   21.5887   -0.1974 C.2       2 UNK         0.4964 
     31 O          26.1316   20.4795   -0.5187 O.2       2 UNK        -0.5047 
     32 CA         27.9244   21.7180    0.5192 C.3       2 UNK         0.0288 
     33 CB         28.6529   20.3679    0.6596 C.3       2 UNK        -0.2113 
     34 N          28.8453   22.6824   -0.0987 N.am      2 UNK        -0.4145 
     35 C          28.7350   24.0200   -0.0842 C.2       1 UNK         0.5006 
     36 O          27.7619   24.6159    0.3798 O.2       1 UNK        -0.5103 
     37 C          26.9591   28.9660    1.9043 C.2       5 UNK         0.5055 
     38 O          26.3505   29.7867    2.5936 O.2       5 UNK        -0.5220 
     39 N          27.9190   29.2907    1.0249 N.am      6 UNK        -0.4450 
     40 CA         28.3379   30.6539    0.6784 C.3       6 UNK         0.0367 
     41 CB         29.3113   30.5843   -0.5102 C.3       6 UNK        -0.1929 
     42 C          28.9646   31.4611    1.8319 C.2       6 UNK         0.5070 
     43 O          28.9690   32.6908    1.7591 O.2       6 UNK        -0.5237 
     44 N          29.4751   30.7651    2.8589 N.am      7 UNK        -0.4739 
     45 CA         30.1624   31.3064    4.0371 C.3       7 UNK         0.0276 
     46 CB         29.2031   32.1639    4.8943 C.3       7 UNK        -0.1927 
     47 C          31.4841   32.0092    3.6682 C.2       7 UNK         0.5013 
     48 O          32.1237   31.6184    2.6869 O.2       7 UNK        -0.5193 
     49 N          31.9024   32.9883    4.4852 N.am      8 UNK        -0.4253 
     50 CA         33.1646   33.7308    4.3852 C.3       8 UNK         0.0242 
     51 CB         33.1167   34.7165    3.1946 C.3       8 UNK        -0.2000 
     52 C          34.3650   32.7653    4.3658 C.2       8 UNK         0.4948 
     53 O          34.5204   31.9910    5.3116 O.2       8 UNK        -0.5275 
     54 N          35.1456   32.7677    3.2775 N.am      9 UNK        -0.4246 
     55 CA         36.2957   31.8879    3.0470 C.3       9 UNK         0.0261 
     56 CB         36.9621   32.2763    1.7168 C.3       9 UNK        -0.1959 
     57 C          35.9837   30.3770    3.0702 C.2       9 UNK         0.5033 
     58 O          36.9115   29.5895    3.2618 O.2       9 UNK        -0.5390 
     59 N          34.7113   29.9870    2.8914 N.am      10 UNK        -0.4215 
     60 CA         34.2672   28.5936    2.9827 C.3       10 UNK         0.0240 
     61 CB         32.8901   28.4436    2.3138 C.3       10 UNK        -0.1982 
     62 C          34.2402   28.0447    4.4236 C.2       10 UNK         0.4970 
     63 O          34.3002   26.8248    4.5799 O.2       10 UNK        -0.4916 
     64 N          34.1482   28.9232    5.4343 N.am      11 UNK        -0.4279 
     65 CA         34.1211   28.5578    6.8632 C.3       11 UNK         0.1003 
     66 C          35.1665   29.3217    7.7229 C.2       11 UNK         0.5709 
     67 N          35.6910   30.4652    7.3030 N.am      11 UNK        -0.7358 
     68 O          35.5315   28.8485    8.7967 O.2       11 UNK        -0.4999 
     69 C69        32.6922   28.6783    7.4662 C.3       12 UNK        -0.0954 
     70 S70        31.6633   27.2187    7.0997 S.3       12 UNK        -0.2268 
     71 C71        30.6698   27.8108    5.7004 C.3       12 UNK         0.0203 
     72 H72        31.7355   23.4251   -4.4983 H         1 UNK         0.0888 
     73 H73        31.1396   21.9109   -3.8127 H         1 UNK         0.0888 
     74 H74        32.4329   22.7984   -3.0033 H         1 UNK         0.0888 
     75 H75        31.7039   23.9143   -1.1898 H         1 UNK         0.3017 
     76 H76        29.4137   25.6261   -1.2725 H         1 UNK         0.0873 
     77 H77        31.2272   26.4105    0.0166 H         1 UNK         0.0745 
     78 H78        29.9827   26.0716    1.1658 H         1 UNK         0.0745 
     79 H79        30.2553   23.0008    2.2361 H         1 UNK         0.0705 
     80 H80        31.5819   23.2179    3.3361 H         1 UNK         0.0705 
     81 H81        31.7641   25.9585    4.0513 H         1 UNK         0.1334 
     82 H82        28.0336   27.0855    5.8391 H         1 UNK         0.1417 
     83 H83        28.2249   23.6692    3.2587 H         1 UNK         0.1562 
     84 H84        26.1107   25.6789    5.6367 H         1 UNK         0.0748 
     85 H85        26.3850   24.0297    5.1446 H         1 UNK         0.0748 
     86 H86        25.8918   27.5860    4.0471 H         1 UNK         0.0940 
     87 H87        24.6123   27.5258    2.8634 H         1 UNK         0.0940 
     88 H88        27.5508   26.9655    2.2308 H         1 UNK         0.0703 
     89 H89        26.7423   26.1107    0.3795 H         1 UNK         0.3081 
     90 H90        24.1209   26.9567   -1.9024 H         1 UNK         0.0719 
     91 H91        27.1766   27.0074   -2.1769 H         1 UNK         0.0809 
     92 H92        26.0129   26.8510   -3.4920 H         1 UNK         0.0809 
     93 H93        26.0975   28.3397   -2.5663 H         1 UNK         0.0809 
     94 H94        26.0701   24.8434   -1.8018 H         1 UNK         0.2990 
     95 H95        23.8535   22.4132   -0.3883 H         1 UNK         0.0690 
     96 H96        24.5811   21.3074   -2.4792 H         1 UNK         0.0788 
     97 H97        25.3035   22.7981   -3.0783 H         1 UNK         0.0788 
     98 H98        23.5579   22.6595   -2.9137 H         1 UNK         0.0788 
     99 H99        26.3638   23.5744   -0.0654 H         1 UNK         0.2993 
    100 H100       27.7006   22.0721    1.5272 H         1 UNK         0.0949 
    101 H101       29.5722   20.4700    1.2369 H         1 UNK         0.0767 
    102 H102       28.0302   19.6371    1.1776 H         1 UNK         0.0767 
    103 H103       28.9109   19.9470   -0.3131 H         1 UNK         0.0767 
    104 H104       29.6638   22.2912   -0.5410 H         1 UNK         0.3013 
    105 H105       28.3502   28.5463    0.4974 H         1 UNK         0.3121 
    106 H106       27.4457   31.1962    0.3581 H         1 UNK         0.0774 
    107 H107       28.8531   30.1038   -1.3749 H         1 UNK         0.0815 
    108 H108       30.2183   30.0338   -0.2565 H         1 UNK         0.0815 
    109 H109       29.6166   31.5841   -0.8228 H         1 UNK         0.0815 
    110 H110       29.4412   29.7588    2.7926 H         1 UNK         0.2987 
    111 H111       30.4503   30.4474    4.6392 H         1 UNK         0.0949 
    112 H112       28.9764   33.1202    4.4211 H         1 UNK         0.0806 
    113 H113       28.2577   31.6464    5.0593 H         1 UNK         0.0806 
    114 H114       29.6226   32.3717    5.8791 H         1 UNK         0.0806 
    115 H115       31.3279   33.2133    5.2849 H         1 UNK         0.3010 
    116 H116       33.2611   34.3166    5.3006 H         1 UNK         0.0829 
    117 H117       32.2814   35.4091    3.2996 H         1 UNK         0.0813 
    118 H118       34.0228   35.3218    3.1428 H         1 UNK         0.0813 
    119 H119       32.9957   34.2071    2.2376 H         1 UNK         0.0813 
    120 H120       34.9138   33.4096    2.5333 H         1 UNK         0.3038 
    121 H121       37.0089   32.0743    3.8527 H         1 UNK         0.0769 
    122 H122       36.2854   32.1404    0.8722 H         1 UNK         0.0811 
    123 H123       37.8452   31.6640    1.5278 H         1 UNK         0.0811 
    124 H124       37.2891   33.3163    1.7235 H         1 UNK         0.0811 
    125 H125       33.9917   30.6879    2.7388 H         1 UNK         0.3204 
    126 H126       34.9737   27.9800    2.4194 H         1 UNK         0.0748 
    127 H127       32.9039   28.8083    1.2866 H         1 UNK         0.0771 
    128 H128       32.5881   27.3969    2.2789 H         1 UNK         0.0771 
    129 H129       32.1139   28.9868    2.8506 H         1 UNK         0.0771 
    130 H130       34.1558   29.9156    5.2318 H         1 UNK         0.2980 
    131 H131       34.4330   27.5163    6.9629 H         1 UNK         0.0545 
    132 H132       36.3773   30.9210    7.8822 H         1 UNK         0.3459 
    133 H133       35.3332   30.9489    6.4824 H         1 UNK         0.3459 
    134 H134       32.7293   28.7504    8.5550 H         1 UNK         0.0616 
    135 H135       32.1972   29.5892    7.1250 H         1 UNK         0.0616 
    136 H136       31.3185   28.3170    4.9876 H         1 UNK         0.0634 
    137 H137       29.9492   28.5479    6.0575 H         1 UNK         0.0634 
@<TRIPOS>BOND
     1    1    2 1    
     2    1   72 1    
     3    1   73 1    
     4    1   74 1    
     5    2    3 2    
     6    2    4 am   BACKBONE|DICT|INTERRES
     7    4    5 1    
     8    4   75 1    
     9    5    6 1    
    10    5   35 1    
    11    5   76 1    
    12    6    7 1    
    13    6   77 1    
    14    6   78 1    
    15    7    8 1    
    16    8    9 1    
    17    8   79 1    
    18    8   80 1    
    19    9   10 ar   
    20    9   14 ar   
    21   10   11 ar   
    22   10   81 1    
    23   11   12 ar   
    24   11   71 1    
    25   12   13 ar   
    26   12   82 1    
    27   13   14 ar   
    28   13   15 1    
    29   14   83 1    
    30   15   16 1    
    31   15   84 1    
    32   15   85 1    
    33   16   17 1    
    34   17   18 1    
    35   17   86 1    
    36   17   87 1    
    37   18   19 1    
    38   18   37 1    
    39   18   88 1    
    40   19   20 am   BACKBONE|DICT|INTERRES
    41   19   89 1    
    42   20   21 2    
    43   20   22 1    
    44   22   23 1    
    45   22   24 1    
    46   22   90 1    
    47   23   91 1    
    48   23   92 1    
    49   23   93 1    
    50   24   25 am   BACKBONE|DICT|INTERRES
    51   24   94 1    
    52   25   26 2    
    53   25   27 1    
    54   27   28 1    
    55   27   29 1    
    56   27   95 1    
    57   28   96 1    
    58   28   97 1    
    59   28   98 1    
    60   29   30 am   BACKBONE|DICT|INTERRES
    61   29   99 1    
    62   30   31 2    
    63   30   32 1    
    64   32   33 1    
    65   32   34 1    
    66   32  100 1    
    67   33  101 1    
    68   33  102 1    
    69   33  103 1    
    70   34   35 am   BACKBONE|DICT|INTERRES
    71   34  104 1    
    72   35   36 2    
    73   37   38 2    
    74   37   39 am   BACKBONE|DICT|INTERRES
    75   39   40 1    
    76   39  105 1    
    77   40   41 1    
    78   40   42 1    
    79   40  106 1    
    80   41  107 1    
    81   41  108 1    
    82   41  109 1    
    83   42   43 2    
    84   42   44 am   BACKBONE|DICT|INTERRES
    85   44   45 1    
    86   44  110 1    
    87   45   46 1    
    88   45   47 1    
    89   45  111 1    
    90   46  112 1    
    91   46  113 1    
    92   46  114 1    
    93   47   48 2    
    94   47   49 am   BACKBONE|DICT|INTERRES
    95   49   50 1    
    96   49  115 1    
    97   50   51 1    
    98   50   52 1    
    99   50  116 1    
   100   51  117 1    
   101   51  118 1    
   102   51  119 1    
   103   52   53 2    
   104   52   54 am   BACKBONE|DICT|INTERRES
   105   54   55 1    
   106   54  120 1    
   107   55   56 1    
   108   55   57 1    
   109   55  121 1    
   110   56  122 1    
   111   56  123 1    
   112   56  124 1    
   113   57   58 2    
   114   57   59 am   BACKBONE|DICT|INTERRES
   115   59   60 1    
   116   59  125 1    
   117   60   61 1    
   118   60   62 1    
   119   60  126 1    
   120   61  127 1    
   121   61  128 1    
   122   61  129 1    
   123   62   63 2    
   124   62   64 am   BACKBONE|DICT|INTERRES
   125   64   65 1    
   126   64  130 1    
   127   65   66 1    
   128   65   69 1    
   129   65  131 1    
   130   66   67 am   BACKBONE|DICT|INTERRES
   131   66   68 2    
   132   67  132 1    
   133   67  133 1    
   134   69   70 1    
   135   69  134 1    
   136   69  135 1    
   137   70   71 1    
   138   71  136 1    
   139   71  137 1    
@<TRIPOS>SUBSTRUCTURE
     1 UNK         1 GROUP             0       ****    0 ROOT    
