@<TRIPOS>MOLECULE
3R136
137   139    1
SMALL
USER_CHARGES


@<TRIPOS>ATOM
      1 CA         31.1652   23.6243   -3.7356 C.3       0 UNK        -0.1979 
      2 C          30.4841   23.8561   -2.3962 C.2       0 UNK         0.4864 
      3 O          29.8000   24.8669   -2.2268 O.2       0 UNK        -0.5359 
      4 N          30.6502   22.9220   -1.4476 N.am      1 UNK        -0.4318 
      5 CA         30.1175   22.9863   -0.0782 C.3       1 UNK         0.0824 
      6 C6         30.5519   21.7711    0.7740 C.3       12 UNK        -0.0944 
      7 S7         32.3050   21.9225    1.2560 S.3       12 UNK        -0.2672 
      8 C8         32.2069   22.0196    3.0754 C.3       12 UNK         0.0333 
      9 C9         31.4385   23.2381    3.5772 C.ar      12 UNK        -0.0807 
     10 C10        32.0405   24.5012    3.5954 C.ar      12 UNK        -0.0894 
     11 C11        31.3514   25.6057    4.1087 C.ar      12 UNK        -0.0804 
     12 C12        30.0526   25.4436    4.5968 C.ar      12 UNK        -0.0824 
     13 C13        29.4327   24.1930    4.5679 C.ar      12 UNK        -0.0762 
     14 C14        30.1352   23.0931    4.0658 C.ar      12 UNK        -0.0782 
     15 C15        28.0142   24.0164    5.0926 C.3       12 UNK         0.0230 
     16 S16        26.8327   23.7724    3.7290 S.3       12 UNK        -0.2608 
     17 C17        25.9362   25.3583    3.6160 C.3       12 UNK        -0.0989 
     18 CA         26.7944   26.6358    3.4153 C.3       5 UNK         0.0716 
     19 N          27.6543   26.5841    2.2218 N.am      5 UNK        -0.4135 
     20 C          28.5484   27.5322    1.8946 C.2       4 UNK         0.5031 
     21 O          28.7945   28.5058    2.6042 O.2       4 UNK        -0.5229 
     22 CA         29.2512   27.4351    0.5297 C.3       4 UNK         0.0329 
     23 CB         30.6093   26.7358    0.6781 C.3       4 UNK        -0.2001 
     24 N          28.4577   26.7996   -0.5283 N.am      4 UNK        -0.4303 
     25 C          27.2562   27.2232   -0.9538 C.2       3 UNK         0.5044 
     26 O          26.6378   28.1562   -0.4410 O.2       3 UNK        -0.5152 
     27 CA         26.6296   26.4717   -2.1378 C.3       3 UNK         0.0319 
     28 CB         27.2442   26.9388   -3.4671 C.3       3 UNK        -0.2001 
     29 N          26.8081   25.0281   -1.9914 N.am      3 UNK        -0.4354 
     30 C          25.9516   24.2273   -1.3406 C.2       2 UNK         0.4964 
     31 O          24.8550   24.5954   -0.9180 O.2       2 UNK        -0.5047 
     32 CA         26.3942   22.7708   -1.0948 C.3       2 UNK         0.0288 
     33 CB         25.8891   21.8566   -2.2228 C.3       2 UNK        -0.2113 
     34 N          27.8436   22.5993   -0.9459 N.am      2 UNK        -0.4145 
     35 C          28.5938   23.2055   -0.0129 C.2       1 UNK         0.5006 
     36 O          28.1391   23.9734    0.8330 O.2       1 UNK        -0.5103 
     37 C          25.8714   27.8778    3.4624 C.2       5 UNK         0.5055 
     38 O          25.4690   28.2739    4.5575 O.2       5 UNK        -0.5220 
     39 N          25.5423   28.4617    2.3009 N.am      6 UNK        -0.4450 
     40 CA         24.6911   29.6456    2.1693 C.3       6 UNK         0.0367 
     41 CB         23.6750   29.3893    1.0415 C.3       6 UNK        -0.1929 
     42 C          25.4992   30.9296    1.8988 C.2       6 UNK         0.5070 
     43 O          24.8866   31.9747    1.6734 O.2       6 UNK        -0.5237 
     44 N          26.8363   30.8509    1.9044 N.am      7 UNK        -0.4739 
     45 CA         27.7439   31.9610    1.6133 C.3       7 UNK         0.0276 
     46 CB         28.6413   31.5512    0.4320 C.3       7 UNK        -0.1927 
     47 C          28.6081   32.2846    2.8388 C.2       7 UNK         0.5013 
     48 O          28.7262   31.4685    3.7548 O.2       7 UNK        -0.5193 
     49 N          29.2641   33.4508    2.8036 N.am      8 UNK        -0.4253 
     50 CA         30.2879   33.8644    3.7687 C.3       8 UNK         0.0242 
     51 CB         30.2460   35.3974    3.9177 C.3       8 UNK        -0.2000 
     52 C          31.6760   33.3440    3.3411 C.2       8 UNK         0.4948 
     53 O          32.6229   34.1253    3.2280 O.2       8 UNK        -0.5275 
     54 N          31.7609   32.0369    3.0638 N.am      9 UNK        -0.4246 
     55 CA         32.9731   31.3484    2.6228 C.3       9 UNK         0.0261 
     56 CB         32.5749   30.0208    1.9598 C.3       9 UNK        -0.1959 
     57 C          33.9413   31.1147    3.7932 C.2       9 UNK         0.5033 
     58 O          33.5010   30.8561    4.9159 O.2       9 UNK        -0.5390 
     59 N          35.2471   31.1730    3.5062 N.am      10 UNK        -0.4215 
     60 CA         36.3387   31.0604    4.4801 C.3       10 UNK         0.0240 
     61 CB         37.5647   31.8208    3.9376 C.3       10 UNK        -0.1982 
     62 C          36.6699   29.6031    4.8687 C.2       10 UNK         0.4970 
     63 O          37.8448   29.2328    4.9085 O.2       10 UNK        -0.4916 
     64 N          35.6381   28.8011    5.1540 N.am      11 UNK        -0.4279 
     65 CA         35.7568   27.4224    5.6594 C.3       11 UNK         0.1003 
     66 C          36.0541   27.3165    7.1847 C.2       11 UNK         0.5709 
     67 N          36.0026   28.3992    7.9527 N.am      11 UNK        -0.7358 
     68 O          36.3583   26.2325    7.6773 O.2       11 UNK        -0.4999 
     69 C69        34.5540   26.5394    5.2311 C.3       12 UNK        -0.0954 
     70 S70        32.9302   27.2510    5.6710 S.3       12 UNK        -0.2268 
     71 C71        31.9911   26.9840    4.1378 C.3       12 UNK         0.0203 
     72 H72        31.8554   24.4400   -3.9489 H         1 UNK         0.0888 
     73 H73        31.7268   22.6905   -3.7521 H         1 UNK         0.0888 
     74 H74        30.4224   23.5892   -4.5320 H         1 UNK         0.0888 
     75 H75        31.2330   22.1208   -1.6452 H         1 UNK         0.3017 
     76 H76        30.5584   23.8732    0.3717 H         1 UNK         0.0873 
     77 H77        30.4110   20.8389    0.2241 H         1 UNK         0.0745 
     78 H78        29.9427   21.6762    1.6737 H         1 UNK         0.0745 
     79 H79        31.7591   21.1001    3.4558 H         1 UNK         0.0705 
     80 H80        33.2209   22.0468    3.4769 H         1 UNK         0.0705 
     81 H81        33.0477   24.6203    3.2208 H         1 UNK         0.1334 
     82 H82        29.5296   26.2984    5.0009 H         1 UNK         0.1417 
     83 H83        29.6605   22.1214    4.0580 H         1 UNK         0.1562 
     84 H84        27.7113   24.8593    5.7151 H         1 UNK         0.0748 
     85 H85        27.9823   23.1394    5.7405 H         1 UNK         0.0748 
     86 H86        25.3360   25.4462    4.5244 H         1 UNK         0.0940 
     87 H87        25.2199   25.2625    2.7974 H         1 UNK         0.0940 
     88 H88        27.4557   26.7363    4.2745 H         1 UNK         0.0703 
     89 H89        27.5817   25.7556    1.6374 H         1 UNK         0.3081 
     90 H90        29.4419   28.4530    0.1871 H         1 UNK         0.0719 
     91 H91        31.3167   27.3862    1.1912 H         1 UNK         0.0809 
     92 H92        30.5248   25.8305    1.2768 H         1 UNK         0.0809 
     93 H93        31.0487   26.4776   -0.2854 H         1 UNK         0.0809 
     94 H94        28.9034   26.0379   -1.0337 H         1 UNK         0.2990 
     95 H95        25.5640   26.7107   -2.1617 H         1 UNK         0.0690 
     96 H96        26.7733   26.4425   -4.3157 H         1 UNK         0.0788 
     97 H97        28.3153   26.7391   -3.5153 H         1 UNK         0.0788 
     98 H98        27.1067   28.0125   -3.6023 H         1 UNK         0.0788 
     99 H99        27.7124   24.6596   -2.2631 H         1 UNK         0.2993 
    100 H100       25.9323   22.4505   -0.1582 H         1 UNK         0.0949 
    101 H101       26.1062   20.8090   -2.0129 H         1 UNK         0.0767 
    102 H102       24.8079   21.9438   -2.3409 H         1 UNK         0.0767 
    103 H103       26.3433   22.1100   -3.1817 H         1 UNK         0.0767 
    104 H104       28.3047   22.0028   -1.6174 H         1 UNK         0.3013 
    105 H105       25.9507   28.1198    1.4348 H         1 UNK         0.3121 
    106 H106       24.1307   29.8132    3.0913 H         1 UNK         0.0774 
    107 H107       24.1673   29.2674    0.0759 H         1 UNK         0.0815 
    108 H108       22.9736   30.2193    0.9472 H         1 UNK         0.0815 
    109 H109       23.0869   28.4919    1.2337 H         1 UNK         0.0815 
    110 H110       27.2852   29.9897    2.1988 H         1 UNK         0.2987 
    111 H111       27.1856   32.8591    1.3402 H         1 UNK         0.0949 
    112 H112       29.3083   30.7322    0.7019 H         1 UNK         0.0806 
    113 H113       28.0489   31.2312   -0.4257 H         1 UNK         0.0806 
    114 H114       29.2659   32.3821    0.1020 H         1 UNK         0.0806 
    115 H115       29.1435   34.0506    1.9995 H         1 UNK         0.3010 
    116 H116       30.0688   33.4308    4.7471 H         1 UNK         0.0829 
    117 H117       30.9686   35.7376    4.6607 H         1 UNK         0.0813 
    118 H118       30.4797   35.9024    2.9796 H         1 UNK         0.0813 
    119 H119       29.2635   35.7369    4.2461 H         1 UNK         0.0813 
    120 H120       30.9465   31.4620    3.2411 H         1 UNK         0.3038 
    121 H121       33.4722   31.9704    1.8763 H         1 UNK         0.0769 
    122 H122       32.0048   30.1916    1.0464 H         1 UNK         0.0811 
    123 H123       31.9588   29.4165    2.6236 H         1 UNK         0.0811 
    124 H124       33.4512   29.4297    1.6900 H         1 UNK         0.0811 
    125 H125       35.5230   31.3372    2.5482 H         1 UNK         0.3204 
    126 H126       36.0294   31.5609    5.4003 H         1 UNK         0.0748 
    127 H127       38.3760   31.8313    4.6669 H         1 UNK         0.0771 
    128 H128       37.9514   31.3652    3.0250 H         1 UNK         0.0771 
    129 H129       37.3216   32.8606    3.7174 H         1 UNK         0.0771 
    130 H130       34.7028   29.1943    5.1369 H         1 UNK         0.2980 
    131 H131       36.6333   26.9806    5.1816 H         1 UNK         0.0545 
    132 H132       36.2050   28.3160    8.9364 H         1 UNK         0.3459 
    133 H133       35.7442   29.2910    7.5633 H         1 UNK         0.3459 
    134 H134       34.6237   25.5384    5.6607 H         1 UNK         0.0616 
    135 H135       34.6013   26.3930    4.1517 H         1 UNK         0.0616 
    136 H136       31.2132   27.7466    4.0768 H         1 UNK         0.0634 
    137 H137       32.6298   27.1311    3.2664 H         1 UNK         0.0634 
@<TRIPOS>BOND
     1    1    2 1    
     2    1   72 1    
     3    1   73 1    
     4    1   74 1    
     5    2    3 2    
     6    2    4 am   BACKBONE|DICT|INTERRES
     7    4    5 1    
     8    4   75 1    
     9    5    6 1    
    10    5   35 1    
    11    5   76 1    
    12    6    7 1    
    13    6   77 1    
    14    6   78 1    
    15    7    8 1    
    16    8    9 1    
    17    8   79 1    
    18    8   80 1    
    19    9   10 ar   
    20    9   14 ar   
    21   10   11 ar   
    22   10   81 1    
    23   11   12 ar   
    24   11   71 1    
    25   12   13 ar   
    26   12   82 1    
    27   13   14 ar   
    28   13   15 1    
    29   14   83 1    
    30   15   16 1    
    31   15   84 1    
    32   15   85 1    
    33   16   17 1    
    34   17   18 1    
    35   17   86 1    
    36   17   87 1    
    37   18   19 1    
    38   18   37 1    
    39   18   88 1    
    40   19   20 am   BACKBONE|DICT|INTERRES
    41   19   89 1    
    42   20   21 2    
    43   20   22 1    
    44   22   23 1    
    45   22   24 1    
    46   22   90 1    
    47   23   91 1    
    48   23   92 1    
    49   23   93 1    
    50   24   25 am   BACKBONE|DICT|INTERRES
    51   24   94 1    
    52   25   26 2    
    53   25   27 1    
    54   27   28 1    
    55   27   29 1    
    56   27   95 1    
    57   28   96 1    
    58   28   97 1    
    59   28   98 1    
    60   29   30 am   BACKBONE|DICT|INTERRES
    61   29   99 1    
    62   30   31 2    
    63   30   32 1    
    64   32   33 1    
    65   32   34 1    
    66   32  100 1    
    67   33  101 1    
    68   33  102 1    
    69   33  103 1    
    70   34   35 am   BACKBONE|DICT|INTERRES
    71   34  104 1    
    72   35   36 2    
    73   37   38 2    
    74   37   39 am   BACKBONE|DICT|INTERRES
    75   39   40 1    
    76   39  105 1    
    77   40   41 1    
    78   40   42 1    
    79   40  106 1    
    80   41  107 1    
    81   41  108 1    
    82   41  109 1    
    83   42   43 2    
    84   42   44 am   BACKBONE|DICT|INTERRES
    85   44   45 1    
    86   44  110 1    
    87   45   46 1    
    88   45   47 1    
    89   45  111 1    
    90   46  112 1    
    91   46  113 1    
    92   46  114 1    
    93   47   48 2    
    94   47   49 am   BACKBONE|DICT|INTERRES
    95   49   50 1    
    96   49  115 1    
    97   50   51 1    
    98   50   52 1    
    99   50  116 1    
   100   51  117 1    
   101   51  118 1    
   102   51  119 1    
   103   52   53 2    
   104   52   54 am   BACKBONE|DICT|INTERRES
   105   54   55 1    
   106   54  120 1    
   107   55   56 1    
   108   55   57 1    
   109   55  121 1    
   110   56  122 1    
   111   56  123 1    
   112   56  124 1    
   113   57   58 2    
   114   57   59 am   BACKBONE|DICT|INTERRES
   115   59   60 1    
   116   59  125 1    
   117   60   61 1    
   118   60   62 1    
   119   60  126 1    
   120   61  127 1    
   121   61  128 1    
   122   61  129 1    
   123   62   63 2    
   124   62   64 am   BACKBONE|DICT|INTERRES
   125   64   65 1    
   126   64  130 1    
   127   65   66 1    
   128   65   69 1    
   129   65  131 1    
   130   66   67 am   BACKBONE|DICT|INTERRES
   131   66   68 2    
   132   67  132 1    
   133   67  133 1    
   134   69   70 1    
   135   69  134 1    
   136   69  135 1    
   137   70   71 1    
   138   71  136 1    
   139   71  137 1    
@<TRIPOS>SUBSTRUCTURE
     1 UNK         1 GROUP             0       ****    0 ROOT    
