@<TRIPOS>MOLECULE
3R136
137   139    1
SMALL
USER_CHARGES


@<TRIPOS>ATOM
      1 CA         26.5231   21.8659   -2.2546 C.3       0 UNK        -0.1979 
      2 C          27.6302   22.2197   -1.2738 C.2       0 UNK         0.4864 
      3 O          27.5396   23.2501   -0.6046 O.2       0 UNK        -0.5359 
      4 N          28.6767   21.3843   -1.1927 N.am      1 UNK        -0.4318 
      5 CA         29.8478   21.5512   -0.3231 C.3       1 UNK         0.0824 
      6 C6         29.4930   21.3324    1.1758 C.3       12 UNK        -0.0944 
      7 S7         30.9676   21.0030    2.1967 S.3       12 UNK        -0.2672 
      8 C8         30.2236   20.7976    3.8428 C.3       12 UNK         0.0333 
      9 C9         29.6934   22.1096    4.4041 C.ar      12 UNK        -0.0807 
     10 C10        30.5777   23.0645    4.9143 C.ar      12 UNK        -0.0894 
     11 C11        30.0957   24.2486    5.4816 C.ar      12 UNK        -0.0804 
     12 C12        28.7171   24.4789    5.5287 C.ar      12 UNK        -0.0824 
     13 C13        27.8244   23.5350    5.0122 C.ar      12 UNK        -0.0762 
     14 C14        28.3179   22.3536    4.4503 C.ar      12 UNK        -0.0782 
     15 C15        26.3236   23.7659    5.0883 C.3       12 UNK         0.0230 
     16 S16        25.6598   24.3968    3.5173 S.3       12 UNK        -0.2608 
     17 C17        26.0502   26.1793    3.6173 C.3       12 UNK        -0.0989 
     18 CA         27.1291   26.6429    2.5966 C.3       5 UNK         0.0716 
     19 N          26.8368   26.2276    1.2181 N.am      5 UNK        -0.4135 
     20 C          25.7994   26.6118    0.4597 C.2       4 UNK         0.5031 
     21 O          24.9445   27.4281    0.8098 O.2       4 UNK        -0.5229 
     22 CA         25.7064   25.9397   -0.9228 C.3       4 UNK         0.0329 
     23 CB         24.6029   26.5282   -1.8296 C.3       4 UNK        -0.2001 
     24 N          27.0102   25.8951   -1.5969 N.am      4 UNK        -0.4303 
     25 C          27.7097   26.9349   -2.0748 C.2       3 UNK         0.5044 
     26 O          27.2971   28.0956   -2.0851 O.2       3 UNK        -0.5152 
     27 CA         29.1156   26.6143   -2.6257 C.3       3 UNK         0.0319 
     28 CB         29.8884   27.8799   -3.0541 C.3       3 UNK        -0.2001 
     29 N          29.9444   25.8109   -1.7160 N.am      3 UNK        -0.4354 
     30 C          30.2510   26.0761   -0.4375 C.2       2 UNK         0.4964 
     31 O          29.7713   27.0121    0.2004 O.2       2 UNK        -0.5047 
     32 CA         31.2473   25.1179    0.2464 C.3       2 UNK         0.0288 
     33 CB         31.6498   25.5964    1.6538 C.3       2 UNK        -0.2113 
     34 N          30.7083   23.7643    0.3593 N.am      2 UNK        -0.4145 
     35 C          30.5698   22.8830   -0.6394 C.2       1 UNK         0.5006 
     36 O          30.9566   23.0990   -1.7915 O.2       1 UNK        -0.5103 
     37 C          27.4047   28.1624    2.6920 C.2       5 UNK         0.5055 
     38 O          26.8786   28.8322    3.5848 O.2       5 UNK        -0.5220 
     39 N          28.2194   28.6946    1.7707 N.am      6 UNK        -0.4450 
     40 CA         28.5572   30.1153    1.6385 C.3       6 UNK         0.0367 
     41 CB         29.0204   30.3849    0.1951 C.3       6 UNK        -0.1929 
     42 C          29.5967   30.5773    2.6779 C.2       6 UNK         0.5070 
     43 O          30.6081   31.1817    2.3164 O.2       6 UNK        -0.5237 
     44 N          29.3205   30.3147    3.9617 N.am      7 UNK        -0.4739 
     45 CA         30.2076   30.5675    5.1025 C.3       7 UNK         0.0276 
     46 CB         29.5569   30.0141    6.3801 C.3       7 UNK        -0.1927 
     47 C          30.6150   32.0384    5.2960 C.2       7 UNK         0.5013 
     48 O          31.6695   32.2986    5.8759 O.2       7 UNK        -0.5193 
     49 N          29.7945   32.9667    4.7845 N.am      8 UNK        -0.4253 
     50 CA         30.0912   34.3984    4.7102 C.3       8 UNK         0.0242 
     51 CB         28.8142   35.1590    4.3175 C.3       8 UNK        -0.2000 
     52 C          31.2392   34.7338    3.7379 C.2       8 UNK         0.4948 
     53 O          31.8994   35.7555    3.9319 O.2       8 UNK        -0.5275 
     54 N          31.4597   33.8843    2.7234 N.am      9 UNK        -0.4246 
     55 CA         32.5862   33.9727    1.7981 C.3       9 UNK         0.0261 
     56 CB         32.1538   33.5276    0.3891 C.3       9 UNK        -0.1959 
     57 C          33.7558   33.1316    2.3261 C.2       9 UNK         0.5033 
     58 O          34.8244   33.6890    2.5820 O.2       9 UNK        -0.5390 
     59 N          33.5328   31.8217    2.5021 N.am      10 UNK        -0.4215 
     60 CA         34.5092   30.8581    3.0127 C.3       10 UNK         0.0240 
     61 CB         35.6587   30.6480    2.0040 C.3       10 UNK        -0.1982 
     62 C          33.8107   29.5226    3.2857 C.2       10 UNK         0.4970 
     63 O          32.8765   29.1714    2.5650 O.2       10 UNK        -0.4916 
     64 N          34.3091   28.7857    4.2835 N.am      11 UNK        -0.4279 
     65 CA         33.8224   27.4486    4.6602 C.3       11 UNK         0.1003 
     66 C          34.9622   26.4592    5.0405 C.2       11 UNK         0.5709 
     67 N          36.2258   26.7656    4.7666 N.am      11 UNK        -0.7358 
     68 O          34.7038   25.3848    5.5766 O.2       11 UNK        -0.4999 
     69 C69        32.6757   27.5255    5.7160 C.3       12 UNK        -0.0954 
     70 S70        31.1311   26.7847    5.0918 S.3       12 UNK        -0.2268 
     71 C71        31.0647   25.2591    6.0753 C.3       12 UNK         0.0203 
     72 H72        26.4101   22.6582   -2.9940 H         1 UNK         0.0888 
     73 H73        26.7273   20.9345   -2.7823 H         1 UNK         0.0888 
     74 H74        25.5770   21.7563   -1.7254 H         1 UNK         0.0888 
     75 H75        28.7056   20.5762   -1.7989 H         1 UNK         0.3017 
     76 H76        30.5421   20.7627   -0.6181 H         1 UNK         0.0873 
     77 H77        28.8396   20.4634    1.2706 H         1 UNK         0.0745 
     78 H78        28.9249   22.1707    1.5830 H         1 UNK         0.0745 
     79 H79        30.9790   20.3974    4.5206 H         1 UNK         0.0705 
     80 H80        29.4337   20.0464    3.7924 H         1 UNK         0.0705 
     81 H81        31.6424   22.8758    4.8819 H         1 UNK         0.1334 
     82 H82        28.3432   25.3910    5.9736 H         1 UNK         0.1417 
     83 H83        27.6269   21.6190    4.0590 H         1 UNK         0.1562 
     84 H84        26.0719   24.4453    5.9041 H         1 UNK         0.0748 
     85 H85        25.8253   22.8236    5.3214 H         1 UNK         0.0748 
     86 H86        26.3651   26.4241    4.6330 H         1 UNK         0.0940 
     87 H87        25.1192   26.7269    3.4588 H         1 UNK         0.0940 
     88 H88        28.0666   26.1524    2.8647 H         1 UNK         0.0703 
     89 H89        27.4763   25.5533    0.8221 H         1 UNK         0.3081 
     90 H90        25.4331   24.9016   -0.7282 H         1 UNK         0.0719 
     91 H91        24.7421   27.5948   -2.0063 H         1 UNK         0.0809 
     92 H92        24.5743   26.0268   -2.7968 H         1 UNK         0.0809 
     93 H93        23.6208   26.4053   -1.3717 H         1 UNK         0.0809 
     94 H94        27.4579   24.9837   -1.5694 H         1 UNK         0.2990 
     95 H95        28.9596   26.0060   -3.5178 H         1 UNK         0.0690 
     96 H96        30.8530   27.6264   -3.4935 H         1 UNK         0.0788 
     97 H97        30.0695   28.5459   -2.2098 H         1 UNK         0.0788 
     98 H98        29.3318   28.4458   -3.8023 H         1 UNK         0.0788 
     99 H99        30.3406   24.9616   -2.1088 H         1 UNK         0.2993 
    100 H100       32.1481   25.0889   -0.3704 H         1 UNK         0.0949 
    101 H101       30.7946   25.6158    2.3305 H         1 UNK         0.0767 
    102 H102       32.4090   24.9502    2.0947 H         1 UNK         0.0767 
    103 H103       32.0617   26.6064    1.6225 H         1 UNK         0.0767 
    104 H104       30.3633   23.4955    1.2698 H         1 UNK         0.3013 
    105 H105       28.6910   28.0657    1.1186 H         1 UNK         0.3121 
    106 H106       27.6523   30.7017    1.8097 H         1 UNK         0.0774 
    107 H107       29.2232   31.4449    0.0376 H         1 UNK         0.0815 
    108 H108       29.9348   29.8381   -0.0387 H         1 UNK         0.0815 
    109 H109       28.2596   30.0908   -0.5275 H         1 UNK         0.0815 
    110 H110       28.4500   29.8256    4.1514 H         1 UNK         0.2987 
    111 H111       31.1258   30.0134    4.9071 H         1 UNK         0.0949 
    112 H112       29.3378   28.9504    6.2874 H         1 UNK         0.0806 
    113 H113       30.2195   30.1327    7.2386 H         1 UNK         0.0806 
    114 H114       28.6239   30.5291    6.6121 H         1 UNK         0.0806 
    115 H115       28.9467   32.6489    4.3376 H         1 UNK         0.3010 
    116 H116       30.3971   34.7303    5.7048 H         1 UNK         0.0829 
    117 H117       28.0140   34.9922    5.0389 H         1 UNK         0.0813 
    118 H118       28.9967   36.2341    4.2821 H         1 UNK         0.0813 
    119 H119       28.4503   34.8582    3.3342 H         1 UNK         0.0813 
    120 H120       30.9128   33.0291    2.6685 H         1 UNK         0.3038 
    121 H121       32.9225   35.0094    1.7244 H         1 UNK         0.0769 
    122 H122       32.9860   33.6007   -0.3121 H         1 UNK         0.0811 
    123 H123       31.3521   34.1592    0.0064 H         1 UNK         0.0811 
    124 H124       31.8017   32.4961    0.3672 H         1 UNK         0.0811 
    125 H125       32.6106   31.4331    2.3060 H         1 UNK         0.3204 
    126 H126       34.9109   31.2433    3.9523 H         1 UNK         0.0748 
    127 H127       36.3547   29.8841    2.3529 H         1 UNK         0.0771 
    128 H128       35.2825   30.3266    1.0318 H         1 UNK         0.0771 
    129 H129       36.2389   31.5579    1.8528 H         1 UNK         0.0771 
    130 H130       35.0789   29.1412    4.8324 H         1 UNK         0.2980 
    131 H131       33.4287   26.9926    3.7501 H         1 UNK         0.0545 
    132 H132       36.9484   26.1088    5.0169 H         1 UNK         0.3459 
    133 H133       36.4672   27.6071    4.2699 H         1 UNK         0.3459 
    134 H134       32.4594   28.5589    5.9850 H         1 UNK         0.0616 
    135 H135       32.9522   27.0557    6.6616 H         1 UNK         0.0616 
    136 H136       32.0647   24.8279    6.1396 H         1 UNK         0.0634 
    137 H137       30.7650   25.5019    7.0956 H         1 UNK         0.0634 
@<TRIPOS>BOND
     1    1    2 1    
     2    1   72 1    
     3    1   73 1    
     4    1   74 1    
     5    2    3 2    
     6    2    4 am   BACKBONE|DICT|INTERRES
     7    4    5 1    
     8    4   75 1    
     9    5    6 1    
    10    5   35 1    
    11    5   76 1    
    12    6    7 1    
    13    6   77 1    
    14    6   78 1    
    15    7    8 1    
    16    8    9 1    
    17    8   79 1    
    18    8   80 1    
    19    9   10 ar   
    20    9   14 ar   
    21   10   11 ar   
    22   10   81 1    
    23   11   12 ar   
    24   11   71 1    
    25   12   13 ar   
    26   12   82 1    
    27   13   14 ar   
    28   13   15 1    
    29   14   83 1    
    30   15   16 1    
    31   15   84 1    
    32   15   85 1    
    33   16   17 1    
    34   17   18 1    
    35   17   86 1    
    36   17   87 1    
    37   18   19 1    
    38   18   37 1    
    39   18   88 1    
    40   19   20 am   BACKBONE|DICT|INTERRES
    41   19   89 1    
    42   20   21 2    
    43   20   22 1    
    44   22   23 1    
    45   22   24 1    
    46   22   90 1    
    47   23   91 1    
    48   23   92 1    
    49   23   93 1    
    50   24   25 am   BACKBONE|DICT|INTERRES
    51   24   94 1    
    52   25   26 2    
    53   25   27 1    
    54   27   28 1    
    55   27   29 1    
    56   27   95 1    
    57   28   96 1    
    58   28   97 1    
    59   28   98 1    
    60   29   30 am   BACKBONE|DICT|INTERRES
    61   29   99 1    
    62   30   31 2    
    63   30   32 1    
    64   32   33 1    
    65   32   34 1    
    66   32  100 1    
    67   33  101 1    
    68   33  102 1    
    69   33  103 1    
    70   34   35 am   BACKBONE|DICT|INTERRES
    71   34  104 1    
    72   35   36 2    
    73   37   38 2    
    74   37   39 am   BACKBONE|DICT|INTERRES
    75   39   40 1    
    76   39  105 1    
    77   40   41 1    
    78   40   42 1    
    79   40  106 1    
    80   41  107 1    
    81   41  108 1    
    82   41  109 1    
    83   42   43 2    
    84   42   44 am   BACKBONE|DICT|INTERRES
    85   44   45 1    
    86   44  110 1    
    87   45   46 1    
    88   45   47 1    
    89   45  111 1    
    90   46  112 1    
    91   46  113 1    
    92   46  114 1    
    93   47   48 2    
    94   47   49 am   BACKBONE|DICT|INTERRES
    95   49   50 1    
    96   49  115 1    
    97   50   51 1    
    98   50   52 1    
    99   50  116 1    
   100   51  117 1    
   101   51  118 1    
   102   51  119 1    
   103   52   53 2    
   104   52   54 am   BACKBONE|DICT|INTERRES
   105   54   55 1    
   106   54  120 1    
   107   55   56 1    
   108   55   57 1    
   109   55  121 1    
   110   56  122 1    
   111   56  123 1    
   112   56  124 1    
   113   57   58 2    
   114   57   59 am   BACKBONE|DICT|INTERRES
   115   59   60 1    
   116   59  125 1    
   117   60   61 1    
   118   60   62 1    
   119   60  126 1    
   120   61  127 1    
   121   61  128 1    
   122   61  129 1    
   123   62   63 2    
   124   62   64 am   BACKBONE|DICT|INTERRES
   125   64   65 1    
   126   64  130 1    
   127   65   66 1    
   128   65   69 1    
   129   65  131 1    
   130   66   67 am   BACKBONE|DICT|INTERRES
   131   66   68 2    
   132   67  132 1    
   133   67  133 1    
   134   69   70 1    
   135   69  134 1    
   136   69  135 1    
   137   70   71 1    
   138   71  136 1    
   139   71  137 1    
@<TRIPOS>SUBSTRUCTURE
     1 UNK         1 GROUP             0       ****    0 ROOT    
