@<TRIPOS>MOLECULE
3R136
137   139    1
SMALL
USER_CHARGES


@<TRIPOS>ATOM
      1 CA         30.5281   21.8450    3.8296 C.3       0 UNK        -0.1979 
      2 C          30.2068   21.5801    2.3679 C.2       0 UNK         0.4864 
      3 O          29.9529   20.4334    1.9936 O.2       0 UNK        -0.5359 
      4 N          30.2247   22.6316    1.5388 N.am      1 UNK        -0.4318 
      5 CA         29.8587   22.5723    0.1213 C.3       1 UNK         0.0824 
      6 C6         30.5273   23.7132   -0.6925 C.3       12 UNK        -0.0944 
      7 S7         29.8584   25.3891   -0.4032 S.3       12 UNK        -0.2672 
      8 C8         31.2090   26.2023    0.5072 C.3       12 UNK         0.0333 
      9 C9         31.2831   25.7782    1.9674 C.ar      12 UNK        -0.0807 
     10 C10        32.4891   25.3290    2.5063 C.ar      12 UNK        -0.0894 
     11 C11        32.5814   24.9894    3.8593 C.ar      12 UNK        -0.0804 
     12 C12        31.4497   25.1066    4.6736 C.ar      12 UNK        -0.0824 
     13 C13        30.2238   25.5305    4.1470 C.ar      12 UNK        -0.0762 
     14 C14        30.1553   25.8620    2.7881 C.ar      12 UNK        -0.0782 
     15 C15        29.0087   25.5756    5.0799 C.3       12 UNK         0.0230 
     16 S16        27.4330   26.1529    4.3467 S.3       12 UNK        -0.2608 
     17 C17        27.6535   27.9662    4.3240 C.3       12 UNK        -0.0989 
     18 CA         27.5478   28.5883    2.9033 C.3       5 UNK         0.0716 
     19 N          26.3131   28.2496    2.1824 N.am      5 UNK        -0.4135 
     20 C          25.0541   28.5257    2.5511 C.2       4 UNK         0.5031 
     21 O          24.7654   29.1540    3.5703 O.2       4 UNK        -0.5229 
     22 CA         23.9176   28.0554    1.6145 C.3       4 UNK         0.0329 
     23 CB         23.0028   29.2330    1.2313 C.3       4 UNK        -0.2001 
     24 N          24.3752   27.4002    0.3808 N.am      4 UNK        -0.4303 
     25 C          24.8620   26.1548    0.2968 C.2       3 UNK         0.5044 
     26 O          24.9711   25.3978    1.2636 O.2       3 UNK        -0.5152 
     27 CA         25.3366   25.7045   -1.0929 C.3       3 UNK         0.0319 
     28 CB         26.4393   26.6318   -1.6461 C.3       3 UNK        -0.2001 
     29 N          25.8369   24.3347   -1.0068 N.am      3 UNK        -0.4354 
     30 C          25.9205   23.4601   -2.0136 C.2       2 UNK         0.4964 
     31 O          25.6012   23.7247   -3.1746 O.2       2 UNK        -0.5047 
     32 CA         26.4731   22.0636   -1.6625 C.3       2 UNK         0.0288 
     33 CB         26.3301   21.0593   -2.8227 C.3       2 UNK        -0.2113 
     34 N          27.8827   22.1300   -1.2673 N.am      2 UNK        -0.4145 
     35 C          28.3241   22.5112   -0.0609 C.2       1 UNK         0.5006 
     36 O          27.5699   22.8250    0.8657 O.2       1 UNK        -0.5103 
     37 C          27.8782   30.0974    2.8793 C.2       5 UNK         0.5055 
     38 O          28.6668   30.5637    3.7022 O.2       5 UNK        -0.5220 
     39 N          27.3276   30.8301    1.8989 N.am      6 UNK        -0.4450 
     40 CA         27.7860   32.1738    1.5326 C.3       6 UNK         0.0367 
     41 CB         26.7268   32.8606    0.6556 C.3       6 UNK        -0.1929 
     42 C          29.1439   32.1156    0.8080 C.2       6 UNK         0.5070 
     43 O          29.9803   32.9999    0.9972 O.2       6 UNK        -0.5237 
     44 N          29.3457   31.0510    0.0168 N.am      7 UNK        -0.4739 
     45 CA         30.6153   30.6944   -0.6135 C.3       7 UNK         0.0276 
     46 CB         30.3790   29.5367   -1.5972 C.3       7 UNK        -0.1927 
     47 C          31.6693   30.3088    0.4375 C.2       7 UNK         0.5013 
     48 O          31.3266   29.7097    1.4617 O.2       7 UNK        -0.5193 
     49 N          32.9286   30.6866    0.1719 N.am      8 UNK        -0.4253 
     50 CA         34.1207   30.4702    1.0088 C.3       8 UNK         0.0242 
     51 CB         34.4534   28.9623    1.0812 C.3       8 UNK        -0.2000 
     52 C          34.0475   31.0964    2.4190 C.2       8 UNK         0.4948 
     53 O          34.8885   30.7711    3.2579 O.2       8 UNK        -0.5275 
     54 N          33.0312   31.9359    2.6786 N.am      9 UNK        -0.4246 
     55 CA         32.6258   32.4596    3.9886 C.3       9 UNK         0.0261 
     56 CB         33.6438   33.5053    4.4918 C.3       9 UNK        -0.1959 
     57 C          32.3513   31.3413    5.0193 C.2       9 UNK         0.5033 
     58 O          32.6767   31.5099    6.1958 O.2       9 UNK        -0.5390 
     59 N          31.7880   30.2142    4.5487 N.am      10 UNK        -0.4215 
     60 CA         31.5680   28.9627    5.2874 C.3       10 UNK         0.0240 
     61 CB         30.5781   29.1757    6.4562 C.3       10 UNK        -0.1982 
     62 C          32.8893   28.3085    5.7444 C.2       10 UNK         0.4970 
     63 O          32.9638   27.8051    6.8670 O.2       10 UNK        -0.4916 
     64 N          33.9068   28.3510    4.8719 N.am      11 UNK        -0.4279 
     65 CA         35.3083   28.0015    5.1522 C.3       11 UNK         0.1003 
     66 C          35.9410   28.9735    6.1882 C.2       11 UNK         0.5709 
     67 N          35.9558   30.2652    5.8869 N.am      11 UNK        -0.7358 
     68 O          36.4193   28.5751    7.2486 O.2       11 UNK        -0.4999 
     69 C69        35.5344   26.4974    5.4785 C.3       12 UNK        -0.0954 
     70 S70        35.3426   25.4334    4.0116 S.3       12 UNK        -0.2268 
     71 C71        33.8803   24.4246    4.4229 C.3       12 UNK         0.0203 
     72 H72        31.5545   22.1947    3.9370 H         1 UNK         0.0888 
     73 H73        29.8544   22.5978    4.2371 H         1 UNK         0.0888 
     74 H74        30.4157   20.9370    4.4225 H         1 UNK         0.0888 
     75 H75        30.4043   23.5581    1.9030 H         1 UNK         0.3017 
     76 H76        30.2536   21.6334   -0.2739 H         1 UNK         0.0873 
     77 H77        30.4265   23.5085   -1.7596 H         1 UNK         0.0745 
     78 H78        31.6024   23.7142   -0.5062 H         1 UNK         0.0745 
     79 H79        32.1541   26.0270   -0.0090 H         1 UNK         0.0705 
     80 H80        31.0435   27.2778    0.4788 H         1 UNK         0.0705 
     81 H81        33.3612   25.2421    1.8726 H         1 UNK         0.1334 
     82 H82        31.5146   24.8354    5.7188 H         1 UNK         0.1417 
     83 H83        29.2222   26.1698    2.3446 H         1 UNK         0.1562 
     84 H84        29.2414   26.1889    5.9512 H         1 UNK         0.0748 
     85 H85        28.8388   24.5674    5.4599 H         1 UNK         0.0748 
     86 H86        28.6280   28.1917    4.7526 H         1 UNK         0.0940 
     87 H87        26.9199   28.4132    4.9967 H         1 UNK         0.0940 
     88 H88        28.3463   28.1550    2.3031 H         1 UNK         0.0703 
     89 H89        26.4349   27.7008    1.3450 H         1 UNK         0.3081 
     90 H90        23.3224   27.3361    2.1812 H         1 UNK         0.0719 
     91 H91        23.5426   30.0006    0.6752 H         1 UNK         0.0809 
     92 H92        22.1635   28.9015    0.6195 H         1 UNK         0.0809 
     93 H93        22.5813   29.7096    2.1176 H         1 UNK         0.0809 
     94 H94        24.3145   27.9508   -0.4642 H         1 UNK         0.2990 
     95 H95        24.4732   25.7244   -1.7612 H         1 UNK         0.0690 
     96 H96        26.8292   26.2668   -2.5966 H         1 UNK         0.0788 
     97 H97        27.2784   26.7138   -0.9554 H         1 UNK         0.0788 
     98 H98        26.0636   27.6392   -1.8266 H         1 UNK         0.0788 
     99 H99        26.1121   24.0391   -0.0730 H         1 UNK         0.2993 
    100 H100       25.8853   21.6838   -0.8234 H         1 UNK         0.0949 
    101 H101       25.2883   20.9678   -3.1332 H         1 UNK         0.0767 
    102 H102       26.9062   21.3644   -3.6975 H         1 UNK         0.0767 
    103 H103       26.6669   20.0646   -2.5295 H         1 UNK         0.0767 
    104 H104       28.5575   21.9235   -1.9898 H         1 UNK         0.3013 
    105 H105       26.6555   30.3905    1.2884 H         1 UNK         0.3121 
    106 H106       27.9142   32.7636    2.4432 H         1 UNK         0.0774 
    107 H107       25.7737   32.9449    1.1782 H         1 UNK         0.0815 
    108 H108       27.0399   33.8714    0.3901 H         1 UNK         0.0815 
    109 H109       26.5538   32.3187   -0.2751 H         1 UNK         0.0815 
    110 H110       28.6075   30.3688   -0.0558 H         1 UNK         0.2987 
    111 H111       30.9716   31.5635   -1.1710 H         1 UNK         0.0949 
    112 H112       31.3131   29.2169   -2.0613 H         1 UNK         0.0806 
    113 H113       29.9451   28.6662   -1.1042 H         1 UNK         0.0806 
    114 H114       29.7051   29.8328   -2.4014 H         1 UNK         0.0806 
    115 H115       33.0991   31.1896   -0.6889 H         1 UNK         0.3010 
    116 H116       34.9474   30.9706    0.5022 H         1 UNK         0.0829 
    117 H117       34.5373   28.5271    0.0855 H         1 UNK         0.0813 
    118 H118       35.4052   28.7905    1.5856 H         1 UNK         0.0813 
    119 H119       33.6927   28.4013    1.6259 H         1 UNK         0.0813 
    120 H120       32.3891   32.1317    1.9221 H         1 UNK         0.3038 
    121 H121       31.6730   32.9686    3.8336 H         1 UNK         0.0769 
    122 H122       34.6086   33.0522    4.7221 H         1 UNK         0.0811 
    123 H123       33.2883   33.9915    5.4010 H         1 UNK         0.0811 
    124 H124       33.8086   34.2875    3.7509 H         1 UNK         0.0811 
    125 H125       31.5391   30.1830    3.5639 H         1 UNK         0.3204 
    126 H126       31.1095   28.2732    4.5777 H         1 UNK         0.0748 
    127 H127       30.2497   28.2213    6.8679 H         1 UNK         0.0771 
    128 H128       31.0307   29.7382    7.2734 H         1 UNK         0.0771 
    129 H129       29.6903   29.7211    6.1377 H         1 UNK         0.0771 
    130 H130       33.7632   28.8407    4.0013 H         1 UNK         0.2980 
    131 H131       35.8500   28.2043    4.2272 H         1 UNK         0.0545 
    132 H132       35.5699   30.5794    4.9995 H         1 UNK         0.3459 
    133 H133       36.3502   30.9269    6.5351 H         1 UNK         0.3459 
    134 H134       36.5549   26.3372    5.8312 H         1 UNK         0.0616 
    135 H135       34.8875   26.1622    6.2894 H         1 UNK         0.0616 
    136 H136       34.0259   23.4305    3.9976 H         1 UNK         0.0634 
    137 H137       33.8161   24.2830    5.5029 H         1 UNK         0.0634 
@<TRIPOS>BOND
     1    1    2 1    
     2    1   72 1    
     3    1   73 1    
     4    1   74 1    
     5    2    3 2    
     6    2    4 am   BACKBONE|DICT|INTERRES
     7    4    5 1    
     8    4   75 1    
     9    5    6 1    
    10    5   35 1    
    11    5   76 1    
    12    6    7 1    
    13    6   77 1    
    14    6   78 1    
    15    7    8 1    
    16    8    9 1    
    17    8   79 1    
    18    8   80 1    
    19    9   10 ar   
    20    9   14 ar   
    21   10   11 ar   
    22   10   81 1    
    23   11   12 ar   
    24   11   71 1    
    25   12   13 ar   
    26   12   82 1    
    27   13   14 ar   
    28   13   15 1    
    29   14   83 1    
    30   15   16 1    
    31   15   84 1    
    32   15   85 1    
    33   16   17 1    
    34   17   18 1    
    35   17   86 1    
    36   17   87 1    
    37   18   19 1    
    38   18   37 1    
    39   18   88 1    
    40   19   20 am   BACKBONE|DICT|INTERRES
    41   19   89 1    
    42   20   21 2    
    43   20   22 1    
    44   22   23 1    
    45   22   24 1    
    46   22   90 1    
    47   23   91 1    
    48   23   92 1    
    49   23   93 1    
    50   24   25 am   BACKBONE|DICT|INTERRES
    51   24   94 1    
    52   25   26 2    
    53   25   27 1    
    54   27   28 1    
    55   27   29 1    
    56   27   95 1    
    57   28   96 1    
    58   28   97 1    
    59   28   98 1    
    60   29   30 am   BACKBONE|DICT|INTERRES
    61   29   99 1    
    62   30   31 2    
    63   30   32 1    
    64   32   33 1    
    65   32   34 1    
    66   32  100 1    
    67   33  101 1    
    68   33  102 1    
    69   33  103 1    
    70   34   35 am   BACKBONE|DICT|INTERRES
    71   34  104 1    
    72   35   36 2    
    73   37   38 2    
    74   37   39 am   BACKBONE|DICT|INTERRES
    75   39   40 1    
    76   39  105 1    
    77   40   41 1    
    78   40   42 1    
    79   40  106 1    
    80   41  107 1    
    81   41  108 1    
    82   41  109 1    
    83   42   43 2    
    84   42   44 am   BACKBONE|DICT|INTERRES
    85   44   45 1    
    86   44  110 1    
    87   45   46 1    
    88   45   47 1    
    89   45  111 1    
    90   46  112 1    
    91   46  113 1    
    92   46  114 1    
    93   47   48 2    
    94   47   49 am   BACKBONE|DICT|INTERRES
    95   49   50 1    
    96   49  115 1    
    97   50   51 1    
    98   50   52 1    
    99   50  116 1    
   100   51  117 1    
   101   51  118 1    
   102   51  119 1    
   103   52   53 2    
   104   52   54 am   BACKBONE|DICT|INTERRES
   105   54   55 1    
   106   54  120 1    
   107   55   56 1    
   108   55   57 1    
   109   55  121 1    
   110   56  122 1    
   111   56  123 1    
   112   56  124 1    
   113   57   58 2    
   114   57   59 am   BACKBONE|DICT|INTERRES
   115   59   60 1    
   116   59  125 1    
   117   60   61 1    
   118   60   62 1    
   119   60  126 1    
   120   61  127 1    
   121   61  128 1    
   122   61  129 1    
   123   62   63 2    
   124   62   64 am   BACKBONE|DICT|INTERRES
   125   64   65 1    
   126   64  130 1    
   127   65   66 1    
   128   65   69 1    
   129   65  131 1    
   130   66   67 am   BACKBONE|DICT|INTERRES
   131   66   68 2    
   132   67  132 1    
   133   67  133 1    
   134   69   70 1    
   135   69  134 1    
   136   69  135 1    
   137   70   71 1    
   138   71  136 1    
   139   71  137 1    
@<TRIPOS>SUBSTRUCTURE
     1 UNK         1 GROUP             0       ****    0 ROOT    
