@<TRIPOS>MOLECULE
3R136
137   139    1
SMALL
USER_CHARGES


@<TRIPOS>ATOM
      1 CA         31.8794   28.5594   -4.9533 C.3       0 UNK        -0.1979 
      2 C          31.4363   28.1874   -3.5463 C.2       0 UNK         0.4864 
      3 O          31.9412   28.7605   -2.5792 O.2       0 UNK        -0.5359 
      4 N          30.4988   27.2394   -3.4309 N.am      1 UNK        -0.4318 
      5 CA         29.9200   26.7705   -2.1747 C.3       1 UNK         0.0824 
      6 C6         30.6919   25.5545   -1.6023 C.3       12 UNK        -0.0944 
      7 S7         30.2449   25.2262    0.1312 S.3       12 UNK        -0.2672 
      8 C8         31.4068   23.9051    0.5702 C.3       12 UNK         0.0333 
      9 C9         31.5347   23.8355    2.0807 C.ar      12 UNK        -0.0807 
     10 C10        32.4799   24.6329    2.7284 C.ar      12 UNK        -0.0894 
     11 C11        32.5631   24.6481    4.1226 C.ar      12 UNK        -0.0804 
     12 C12        31.7000   23.8399    4.8696 C.ar      12 UNK        -0.0824 
     13 C13        30.7580   23.0238    4.2313 C.ar      12 UNK        -0.0762 
     14 C14        30.6845   23.0211    2.8342 C.ar      12 UNK        -0.0782 
     15 C15        29.8197   22.1482    5.0551 C.3       12 UNK         0.0230 
     16 S16        28.0595   22.5793    4.8346 S.3       12 UNK        -0.2608 
     17 C17        28.0421   24.3550    5.2552 C.3       12 UNK        -0.0989 
     18 CA         27.7100   25.2243    4.0095 C.3       5 UNK         0.0716 
     19 N          26.3496   25.0455    3.4837 N.am      5 UNK        -0.4135 
     20 C          25.1965   25.2765    4.1330 C.2       4 UNK         0.5031 
     21 O          25.1334   25.6105    5.3169 O.2       4 UNK        -0.5229 
     22 CA         23.8750   25.1498    3.3423 C.3       4 UNK         0.0329 
     23 CB         23.1425   26.5027    3.2993 C.3       4 UNK        -0.2001 
     24 N          24.0410   24.6727    1.9685 N.am      4 UNK        -0.4303 
     25 C          24.3370   23.4178    1.6055 C.2       3 UNK         0.5044 
     26 O          24.3924   22.4745    2.3944 O.2       3 UNK        -0.5152 
     27 CA         24.6558   23.1758    0.1153 C.3       3 UNK         0.0319 
     28 CB         23.4844   22.4552   -0.5721 C.3       3 UNK        -0.2001 
     29 N          24.9967   24.3797   -0.6597 N.am      3 UNK        -0.4354 
     30 C          26.0168   25.2131   -0.4087 C.2       2 UNK         0.4964 
     31 O          26.7546   25.1159    0.5757 O.2       2 UNK        -0.5047 
     32 CA         26.1818   26.3943   -1.3743 C.3       2 UNK         0.0288 
     33 CB         25.3705   27.6003   -0.8717 C.3       2 UNK        -0.2113 
     34 N          27.5904   26.7711   -1.4393 N.am      2 UNK        -0.4145 
     35 C          28.4371   26.4476   -2.4216 C.2       1 UNK         0.5006 
     36 O          28.1019   25.9010   -3.4771 O.2       1 UNK        -0.5103 
     37 C          28.0163   26.7224    4.1978 C.2       5 UNK         0.5055 
     38 O          28.4688   27.1461    5.2623 O.2       5 UNK        -0.5220 
     39 N          27.7571   27.4909    3.1355 N.am      6 UNK        -0.4450 
     40 CA         28.1539   28.8827    2.9688 C.3       6 UNK         0.0367 
     41 CB         26.9010   29.7687    2.8843 C.3       6 UNK        -0.1929 
     42 C          28.9543   28.9329    1.6662 C.2       6 UNK         0.5070 
     43 O          28.5752   28.2582    0.7062 O.2       6 UNK        -0.5237 
     44 N          30.0450   29.6993    1.6525 N.am      7 UNK        -0.4739 
     45 CA         31.0227   29.7178    0.5680 C.3       7 UNK         0.0276 
     46 CB         32.0789   28.6252    0.8444 C.3       7 UNK        -0.1927 
     47 C          31.6610   31.1064    0.4551 C.2       7 UNK         0.5013 
     48 O          31.2615   32.0330    1.1655 O.2       7 UNK        -0.5193 
     49 N          32.6663   31.2179   -0.4242 N.am      8 UNK        -0.4253 
     50 CA         33.5758   32.3671   -0.4943 C.3       8 UNK         0.0242 
     51 CB         34.4275   32.2660   -1.7700 C.3       8 UNK        -0.2000 
     52 C          34.4752   32.4863    0.7539 C.2       8 UNK         0.4948 
     53 O          34.8471   33.5994    1.1284 O.2       8 UNK        -0.5275 
     54 N          34.7906   31.3431    1.3789 N.am      9 UNK        -0.4246 
     55 CA         35.4257   31.2476    2.6930 C.3       9 UNK         0.0261 
     56 CB         36.1154   29.8780    2.8095 C.3       9 UNK        -0.1959 
     57 C          34.3779   31.4143    3.8063 C.2       9 UNK         0.5033 
     58 O          33.1966   31.1348    3.5859 O.2       9 UNK        -0.5390 
     59 N          34.8281   31.8210    5.0003 N.am      10 UNK        -0.4215 
     60 CA         34.0010   32.0620    6.1907 C.3       10 UNK         0.0240 
     61 CB         34.7793   32.9746    7.1583 C.3       10 UNK        -0.1982 
     62 C          33.5007   30.7662    6.8692 C.2       10 UNK         0.4970 
     63 O          33.7156   30.5711    8.0673 O.2       10 UNK        -0.4916 
     64 N          32.8527   29.9001    6.0863 N.am      11 UNK        -0.4279 
     65 CA         32.2200   28.6481    6.5184 C.3       11 UNK         0.1003 
     66 C          30.9575   28.8944    7.3886 C.2       11 UNK         0.5709 
     67 N          30.6618   27.9947    8.3173 N.am      11 UNK        -0.7358 
     68 O          30.2356   29.8760    7.2178 O.2       11 UNK        -0.4999 
     69 C69        31.8933   27.7425    5.3038 C.3       12 UNK        -0.0954 
     70 S70        33.3957   27.2911    4.3730 S.3       12 UNK        -0.2268 
     71 C71        33.5926   25.5339    4.8123 C.3       12 UNK         0.0203 
     72 H72        32.9490   28.3850   -5.0669 H         1 UNK         0.0888 
     73 H73        31.3579   27.9773   -5.7130 H         1 UNK         0.0888 
     74 H74        31.6841   29.6150   -5.1404 H         1 UNK         0.0888 
     75 H75        30.0788   26.8290   -4.2555 H         1 UNK         0.3017 
     76 H76        29.9653   27.5861   -1.4525 H         1 UNK         0.0873 
     77 H77        31.7645   25.7533   -1.6331 H         1 UNK         0.0745 
     78 H78        30.5267   24.6568   -2.2014 H         1 UNK         0.0745 
     79 H79        32.3818   24.0996    0.1207 H         1 UNK         0.0705 
     80 H80        31.0550   22.9556    0.1643 H         1 UNK         0.0705 
     81 H81        33.1339   25.2688    2.1470 H         1 UNK         0.1334 
     82 H82        31.7605   23.8477    5.9493 H         1 UNK         0.1417 
     83 H83        29.9446   22.4082    2.3370 H         1 UNK         0.1562 
     84 H84        30.0637   22.2098    6.1168 H         1 UNK         0.0748 
     85 H85        29.9649   21.1055    4.7695 H         1 UNK         0.0748 
     86 H86        29.0134   24.6298    5.6691 H         1 UNK         0.0940 
     87 H87        27.3285   24.5232    6.0620 H         1 UNK         0.0940 
     88 H88        28.3785   24.9044    3.2077 H         1 UNK         0.0703 
     89 H89        26.3063   24.8220    2.4944 H         1 UNK         0.3081 
     90 H90        23.2464   24.4359    3.8788 H         1 UNK         0.0719 
     91 H91        23.7305   27.2637    2.7842 H         1 UNK         0.0809 
     92 H92        22.1808   26.4190    2.7927 H         1 UNK         0.0809 
     93 H93        22.9425   26.8732    4.3058 H         1 UNK         0.0809 
     94 H94        24.0131   25.3731    1.2425 H         1 UNK         0.2990 
     95 H95        25.5262   22.5171    0.0842 H         1 UNK         0.0690 
     96 H96        23.7344   22.1753   -1.5957 H         1 UNK         0.0788 
     97 H97        22.5893   23.0779   -0.6014 H         1 UNK         0.0788 
     98 H98        23.2248   21.5367   -0.0434 H         1 UNK         0.0788 
     99 H99        24.4214   24.5583   -1.4709 H         1 UNK         0.2993 
    100 H100       25.8196   26.1063   -2.3637 H         1 UNK         0.0949 
    101 H101       25.4880   28.4578   -1.5346 H         1 UNK         0.0767 
    102 H102       24.3055   27.3691   -0.8271 H         1 UNK         0.0767 
    103 H103       25.6826   27.9082    0.1274 H         1 UNK         0.0767 
    104 H104       27.9722   27.1937   -0.5916 H         1 UNK         0.3013 
    105 H105       27.4697   27.0399    2.2748 H         1 UNK         0.3121 
    106 H106       28.7840   29.2126    3.7981 H         1 UNK         0.0774 
    107 H107       27.1741   30.8169    2.7569 H         1 UNK         0.0815 
    108 H108       26.2641   29.4916    2.0433 H         1 UNK         0.0815 
    109 H109       26.3046   29.6952    3.7938 H         1 UNK         0.0815 
    110 H110       30.2600   30.3098    2.4307 H         1 UNK         0.2987 
    111 H111       30.5237   29.5224   -0.3821 H         1 UNK         0.0949 
    112 H112       32.7677   28.5051    0.0083 H         1 UNK         0.0806 
    113 H113       32.6694   28.8562    1.7321 H         1 UNK         0.0806 
    114 H114       31.6133   27.6543    1.0082 H         1 UNK         0.0806 
    115 H115       32.8718   30.4285   -1.0242 H         1 UNK         0.3010 
    116 H116       32.9719   33.2752   -0.5543 H         1 UNK         0.0829 
    117 H117       33.8031   32.2477   -2.6636 H         1 UNK         0.0813 
    118 H118       35.0962   33.1232   -1.8605 H         1 UNK         0.0813 
    119 H119       35.0462   31.3678   -1.7741 H         1 UNK         0.0813 
    120 H120       34.3966   30.4890    1.0156 H         1 UNK         0.3038 
    121 H121       36.1765   32.0350    2.7892 H         1 UNK         0.0769 
    122 H122       36.6187   29.7702    3.7711 H         1 UNK         0.0811 
    123 H123       36.8704   29.7471    2.0341 H         1 UNK         0.0811 
    124 H124       35.4014   29.0577    2.7238 H         1 UNK         0.0811 
    125 H125       35.8197   31.9798    5.1102 H         1 UNK         0.3204 
    126 H126       33.1093   32.6083    5.8752 H         1 UNK         0.0748 
    127 H127       34.1747   33.2281    8.0303 H         1 UNK         0.0771 
    128 H128       35.6903   32.4961    7.5203 H         1 UNK         0.0771 
    129 H129       35.0594   33.9136    6.6804 H         1 UNK         0.0771 
    130 H130       32.7411   30.1500    5.1071 H         1 UNK         0.2980 
    131 H131       32.9460   28.1224    7.1420 H         1 UNK         0.0545 
    132 H132       29.8378   28.1295    8.8814 H         1 UNK         0.3459 
    133 H133       31.2404   27.1824    8.4618 H         1 UNK         0.3459 
    134 H134       31.3817   26.8333    5.6245 H         1 UNK         0.0616 
    135 H135       31.2082   28.2481    4.6205 H         1 UNK         0.0616 
    136 H136       33.5446   25.4277    5.8971 H         1 UNK         0.0634 
    137 H137       34.5900   25.2095    4.5135 H         1 UNK         0.0634 
@<TRIPOS>BOND
     1    1    2 1    
     2    1   72 1    
     3    1   73 1    
     4    1   74 1    
     5    2    3 2    
     6    2    4 am   BACKBONE|DICT|INTERRES
     7    4    5 1    
     8    4   75 1    
     9    5    6 1    
    10    5   35 1    
    11    5   76 1    
    12    6    7 1    
    13    6   77 1    
    14    6   78 1    
    15    7    8 1    
    16    8    9 1    
    17    8   79 1    
    18    8   80 1    
    19    9   10 ar   
    20    9   14 ar   
    21   10   11 ar   
    22   10   81 1    
    23   11   12 ar   
    24   11   71 1    
    25   12   13 ar   
    26   12   82 1    
    27   13   14 ar   
    28   13   15 1    
    29   14   83 1    
    30   15   16 1    
    31   15   84 1    
    32   15   85 1    
    33   16   17 1    
    34   17   18 1    
    35   17   86 1    
    36   17   87 1    
    37   18   19 1    
    38   18   37 1    
    39   18   88 1    
    40   19   20 am   BACKBONE|DICT|INTERRES
    41   19   89 1    
    42   20   21 2    
    43   20   22 1    
    44   22   23 1    
    45   22   24 1    
    46   22   90 1    
    47   23   91 1    
    48   23   92 1    
    49   23   93 1    
    50   24   25 am   BACKBONE|DICT|INTERRES
    51   24   94 1    
    52   25   26 2    
    53   25   27 1    
    54   27   28 1    
    55   27   29 1    
    56   27   95 1    
    57   28   96 1    
    58   28   97 1    
    59   28   98 1    
    60   29   30 am   BACKBONE|DICT|INTERRES
    61   29   99 1    
    62   30   31 2    
    63   30   32 1    
    64   32   33 1    
    65   32   34 1    
    66   32  100 1    
    67   33  101 1    
    68   33  102 1    
    69   33  103 1    
    70   34   35 am   BACKBONE|DICT|INTERRES
    71   34  104 1    
    72   35   36 2    
    73   37   38 2    
    74   37   39 am   BACKBONE|DICT|INTERRES
    75   39   40 1    
    76   39  105 1    
    77   40   41 1    
    78   40   42 1    
    79   40  106 1    
    80   41  107 1    
    81   41  108 1    
    82   41  109 1    
    83   42   43 2    
    84   42   44 am   BACKBONE|DICT|INTERRES
    85   44   45 1    
    86   44  110 1    
    87   45   46 1    
    88   45   47 1    
    89   45  111 1    
    90   46  112 1    
    91   46  113 1    
    92   46  114 1    
    93   47   48 2    
    94   47   49 am   BACKBONE|DICT|INTERRES
    95   49   50 1    
    96   49  115 1    
    97   50   51 1    
    98   50   52 1    
    99   50  116 1    
   100   51  117 1    
   101   51  118 1    
   102   51  119 1    
   103   52   53 2    
   104   52   54 am   BACKBONE|DICT|INTERRES
   105   54   55 1    
   106   54  120 1    
   107   55   56 1    
   108   55   57 1    
   109   55  121 1    
   110   56  122 1    
   111   56  123 1    
   112   56  124 1    
   113   57   58 2    
   114   57   59 am   BACKBONE|DICT|INTERRES
   115   59   60 1    
   116   59  125 1    
   117   60   61 1    
   118   60   62 1    
   119   60  126 1    
   120   61  127 1    
   121   61  128 1    
   122   61  129 1    
   123   62   63 2    
   124   62   64 am   BACKBONE|DICT|INTERRES
   125   64   65 1    
   126   64  130 1    
   127   65   66 1    
   128   65   69 1    
   129   65  131 1    
   130   66   67 am   BACKBONE|DICT|INTERRES
   131   66   68 2    
   132   67  132 1    
   133   67  133 1    
   134   69   70 1    
   135   69  134 1    
   136   69  135 1    
   137   70   71 1    
   138   71  136 1    
   139   71  137 1    
@<TRIPOS>SUBSTRUCTURE
     1 UNK         1 GROUP             0       ****    0 ROOT    
