@<TRIPOS>MOLECULE
3R136
137   139    1
SMALL
USER_CHARGES


@<TRIPOS>ATOM
      1 CA         35.4786   22.7007   -1.7259 C.3       0 UNK        -0.1979 
      2 C          33.9873   22.9987   -1.6626 C.2       0 UNK         0.4864 
      3 O          33.2224   22.4321   -2.4450 O.2       0 UNK        -0.5359 
      4 N          33.5795   23.8745   -0.7319 N.am      1 UNK        -0.4318 
      5 CA         32.2088   24.3584   -0.5155 C.3       1 UNK         0.0824 
      6 C6         31.1957   23.2028   -0.2490 C.3       12 UNK        -0.0944 
      7 S7         29.8187   23.6964    0.8406 S.3       12 UNK        -0.2672 
      8 C8         30.4460   23.1452    2.4574 C.3       12 UNK         0.0333 
      9 C9         29.7689   23.9049    3.5860 C.ar      12 UNK        -0.0807 
     10 C10        30.3616   25.0613    4.0995 C.ar      12 UNK        -0.0894 
     11 C11        29.7294   25.7961    5.1046 C.ar      12 UNK        -0.0804 
     12 C12        28.5181   25.3425    5.6321 C.ar      12 UNK        -0.0824 
     13 C13        27.9114   24.1901    5.1225 C.ar      12 UNK        -0.0762 
     14 C14        28.5428   23.4726    4.1008 C.ar      12 UNK        -0.0782 
     15 C15        26.5602   23.7361    5.6542 C.3       12 UNK         0.0230 
     16 S16        25.1918   24.3595    4.6236 S.3       12 UNK        -0.2608 
     17 C17        25.1972   26.1423    5.0195 C.3       12 UNK        -0.0989 
     18 CA         25.9200   26.9891    3.9396 C.3       5 UNK         0.0716 
     19 N          25.2465   26.9201    2.6430 N.am      5 UNK        -0.4135 
     20 C          25.8467   27.1375    1.4681 C.2       4 UNK         0.5031 
     21 O          27.0455   27.3963    1.3433 O.2       4 UNK        -0.5229 
     22 CA         24.9491   27.1013    0.2233 C.3       4 UNK         0.0329 
     23 CB         24.5957   28.5292   -0.2231 C.3       4 UNK        -0.2001 
     24 N          25.6261   26.4120   -0.8724 N.am      4 UNK        -0.4303 
     25 C          25.7493   25.0854   -0.9852 C.2       3 UNK         0.5044 
     26 O          25.2147   24.2833   -0.2185 O.2       3 UNK        -0.5152 
     27 CA         26.6075   24.5531   -2.1486 C.3       3 UNK         0.0319 
     28 CB         25.8599   24.6598   -3.4926 C.3       3 UNK        -0.2001 
     29 N          27.9577   25.1319   -2.2290 N.am      3 UNK        -0.4354 
     30 C          28.3243   26.3962   -2.4977 C.2       2 UNK         0.4964 
     31 O          27.5271   27.3012   -2.7502 O.2       2 UNK        -0.5047 
     32 CA         29.8326   26.6999   -2.4599 C.3       2 UNK         0.0288 
     33 CB         30.1388   28.1823   -2.1636 C.3       2 UNK        -0.2113 
     34 N          30.5112   25.8342   -1.4915 N.am      2 UNK        -0.4145 
     35 C          31.7445   25.3331   -1.6275 C.2       1 UNK         0.5006 
     36 O          32.4932   25.6269   -2.5637 O.2       1 UNK        -0.5103 
     37 C          26.0431   28.4655    4.3605 C.2       5 UNK         0.5055 
     38 O          25.1031   29.0134    4.9404 O.2       5 UNK        -0.5220 
     39 N          27.1783   29.0899    4.0335 N.am      6 UNK        -0.4450 
     40 CA         27.4909   30.4910    4.3025 C.3       6 UNK         0.0367 
     41 CB         26.8163   31.3836    3.2419 C.3       6 UNK        -0.1929 
     42 C          29.0126   30.6702    4.2782 C.2       6 UNK         0.5070 
     43 O          29.7268   29.7689    3.8350 O.2       6 UNK        -0.5237 
     44 N          29.4919   31.8494    4.6980 N.am      7 UNK        -0.4739 
     45 CA         30.9146   32.2270    4.6991 C.3       7 UNK         0.0276 
     46 CB         31.0714   33.6297    5.3054 C.3       7 UNK        -0.1927 
     47 C          31.5894   32.1589    3.3145 C.2       7 UNK         0.5013 
     48 O          32.7895   31.8959    3.2377 O.2       7 UNK        -0.5193 
     49 N          30.7951   32.3216    2.2454 N.am      8 UNK        -0.4253 
     50 CA         31.1875   32.1133    0.8475 C.3       8 UNK         0.0242 
     51 CB         30.0092   32.4888   -0.0658 C.3       8 UNK        -0.2000 
     52 C          31.6666   30.6810    0.5358 C.2       8 UNK         0.4948 
     53 O          32.4509   30.5051   -0.3961 O.2       8 UNK        -0.5275 
     54 N          31.2251   29.6956    1.3318 N.am      9 UNK        -0.4246 
     55 CA         31.6665   28.3014    1.2755 C.3       9 UNK         0.0261 
     56 CB         30.4730   27.3905    1.6014 C.3       9 UNK        -0.1959 
     57 C          32.8836   28.0201    2.1826 C.2       9 UNK         0.5033 
     58 O          33.1895   26.8519    2.4231 O.2       9 UNK        -0.5390 
     59 N          33.5676   29.0802    2.6414 N.am      10 UNK        -0.4215 
     60 CA         34.8304   29.0943    3.3887 C.3       10 UNK         0.0240 
     61 CB         35.9461   28.3199    2.6513 C.3       10 UNK        -0.1982 
     62 C          34.7121   28.7182    4.8774 C.2       10 UNK         0.4970 
     63 O          35.7196   28.3433    5.4807 O.2       10 UNK        -0.4916 
     64 N          33.5203   28.8758    5.4683 N.am      11 UNK        -0.4279 
     65 CA         33.3405   28.8748    6.9300 C.3       11 UNK         0.1003 
     66 C          33.8465   30.2027    7.5567 C.2       11 UNK         0.5709 
     67 N          34.4152   30.1486    8.7533 N.am      11 UNK        -0.7358 
     68 O          33.6921   31.2817    6.9873 O.2       11 UNK        -0.4999 
     69 C69        31.8721   28.6045    7.3417 C.3       12 UNK        -0.0954 
     70 S70        31.3819   26.8777    7.0332 S.3       12 UNK        -0.2268 
     71 C71        30.3275   27.1074    5.5806 C.3       12 UNK         0.0203 
     72 H72        36.0386   23.2539   -0.9720 H         1 UNK         0.0888 
     73 H73        35.6559   21.6374   -1.5668 H         1 UNK         0.0888 
     74 H74        35.8727   22.9695   -2.7055 H         1 UNK         0.0888 
     75 H75        34.2763   24.3124   -0.1452 H         1 UNK         0.3017 
     76 H76        32.2863   24.9585    0.3923 H         1 UNK         0.0873 
     77 H77        30.7869   22.8128   -1.1833 H         1 UNK         0.0745 
     78 H78        31.7013   22.3551    0.2168 H         1 UNK         0.0745 
     79 H79        30.2809   22.0723    2.5660 H         1 UNK         0.0705 
     80 H80        31.5253   23.3000    2.5062 H         1 UNK         0.0705 
     81 H81        31.3037   25.4078    3.6964 H         1 UNK         0.1334 
     82 H82        28.0323   25.9081    6.4151 H         1 UNK         0.1417 
     83 H83        28.0707   22.5891    3.6925 H         1 UNK         0.1562 
     84 H84        26.4222   24.0571    6.6879 H         1 UNK         0.0748 
     85 H85        26.5204   22.6459    5.6688 H         1 UNK         0.0748 
     86 H86        25.6555   26.2901    5.9988 H         1 UNK         0.0940 
     87 H87        24.1603   26.4659    5.1296 H         1 UNK         0.0940 
     88 H88        26.9285   26.5899    3.8196 H         1 UNK         0.0703 
     89 H89        24.2545   26.7360    2.6662 H         1 UNK         0.3081 
     90 H90        24.0243   26.5691    0.4571 H         1 UNK         0.0719 
     91 H91        25.4880   29.1031   -0.4782 H         1 UNK         0.0809 
     92 H92        23.9414   28.5218   -1.0950 H         1 UNK         0.0809 
     93 H93        24.0757   29.0697    0.5690 H         1 UNK         0.0809 
     94 H94        26.1632   26.9833   -1.5201 H         1 UNK         0.2990 
     95 H95        26.7631   23.4907   -1.9531 H         1 UNK         0.0690 
     96 H96        26.4322   24.2050   -4.3011 H         1 UNK         0.0788 
     97 H97        25.6544   25.6944   -3.7688 H         1 UNK         0.0788 
     98 H98        24.9006   24.1428   -3.4444 H         1 UNK         0.0788 
     99 H99        28.6995   24.4725   -2.0411 H         1 UNK         0.2993 
    100 H100       30.2049   26.4712   -3.4609 H         1 UNK         0.0949 
    101 H101       31.2120   28.3704   -2.1299 H         1 UNK         0.0767 
    102 H102       29.7254   28.8289   -2.9385 H         1 UNK         0.0767 
    103 H103       29.7107   28.5030   -1.2142 H         1 UNK         0.0767 
    104 H104       29.9661   25.5524   -0.6851 H         1 UNK         0.3013 
    105 H105       27.9165   28.5853    3.5552 H         1 UNK         0.3121 
    106 H106       27.1320   30.7578    5.2988 H         1 UNK         0.0774 
    107 H107       27.0269   32.4394    3.4149 H         1 UNK         0.0815 
    108 H108       27.1601   31.1397    2.2356 H         1 UNK         0.0815 
    109 H109       25.7323   31.2696    3.2579 H         1 UNK         0.0815 
    110 H110       28.8422   32.5423    5.0427 H         1 UNK         0.2987 
    111 H111       31.4391   31.5177    5.3426 H         1 UNK         0.0949 
    112 H112       30.5456   34.3856    4.7207 H         1 UNK         0.0806 
    113 H113       30.6904   33.6660    6.3261 H         1 UNK         0.0806 
    114 H114       32.1226   33.9197    5.3460 H         1 UNK         0.0806 
    115 H115       29.8239   32.5371    2.4151 H         1 UNK         0.3010 
    116 H116       32.0196   32.7879    0.6351 H         1 UNK         0.0829 
    117 H117       29.7112   33.5280    0.0750 H         1 UNK         0.0813 
    118 H118       30.2775   32.3708   -1.1168 H         1 UNK         0.0813 
    119 H119       29.1378   31.8592    0.1196 H         1 UNK         0.0813 
    120 H120       30.6046   29.9218    2.1048 H         1 UNK         0.3038 
    121 H121       31.9861   28.0674    0.2584 H         1 UNK         0.0769 
    122 H122       30.0853   27.5613    2.6028 H         1 UNK         0.0811 
    123 H123       30.7518   26.3418    1.5393 H         1 UNK         0.0811 
    124 H124       29.6515   27.5452    0.9043 H         1 UNK         0.0811 
    125 H125       33.1972   30.0029    2.4384 H         1 UNK         0.3204 
    126 H126       35.1333   30.1425    3.3941 H         1 UNK         0.0748 
    127 H127       36.9195   28.5078    3.1059 H         1 UNK         0.0771 
    128 H128       35.7805   27.2427    2.6805 H         1 UNK         0.0771 
    129 H129       36.0163   28.6222    1.6064 H         1 UNK         0.0771 
    130 H130       32.7469   29.2148    4.9177 H         1 UNK         0.2980 
    131 H131       33.9510   28.0688    7.3434 H         1 UNK         0.0545 
    132 H132       34.5359   29.2712    9.2352 H         1 UNK         0.3459 
    133 H133       34.7356   31.0031    9.1812 H         1 UNK         0.3459 
    134 H134       31.7352   28.7769    8.4110 H         1 UNK         0.0616 
    135 H135       31.1919   29.2935    6.8371 H         1 UNK         0.0616 
    136 H136       30.9222   27.5607    4.7874 H         1 UNK         0.0634 
    137 H137       29.5300   27.8134    5.8168 H         1 UNK         0.0634 
@<TRIPOS>BOND
     1    1    2 1    
     2    1   72 1    
     3    1   73 1    
     4    1   74 1    
     5    2    3 2    
     6    2    4 am   BACKBONE|DICT|INTERRES
     7    4    5 1    
     8    4   75 1    
     9    5    6 1    
    10    5   35 1    
    11    5   76 1    
    12    6    7 1    
    13    6   77 1    
    14    6   78 1    
    15    7    8 1    
    16    8    9 1    
    17    8   79 1    
    18    8   80 1    
    19    9   10 ar   
    20    9   14 ar   
    21   10   11 ar   
    22   10   81 1    
    23   11   12 ar   
    24   11   71 1    
    25   12   13 ar   
    26   12   82 1    
    27   13   14 ar   
    28   13   15 1    
    29   14   83 1    
    30   15   16 1    
    31   15   84 1    
    32   15   85 1    
    33   16   17 1    
    34   17   18 1    
    35   17   86 1    
    36   17   87 1    
    37   18   19 1    
    38   18   37 1    
    39   18   88 1    
    40   19   20 am   BACKBONE|DICT|INTERRES
    41   19   89 1    
    42   20   21 2    
    43   20   22 1    
    44   22   23 1    
    45   22   24 1    
    46   22   90 1    
    47   23   91 1    
    48   23   92 1    
    49   23   93 1    
    50   24   25 am   BACKBONE|DICT|INTERRES
    51   24   94 1    
    52   25   26 2    
    53   25   27 1    
    54   27   28 1    
    55   27   29 1    
    56   27   95 1    
    57   28   96 1    
    58   28   97 1    
    59   28   98 1    
    60   29   30 am   BACKBONE|DICT|INTERRES
    61   29   99 1    
    62   30   31 2    
    63   30   32 1    
    64   32   33 1    
    65   32   34 1    
    66   32  100 1    
    67   33  101 1    
    68   33  102 1    
    69   33  103 1    
    70   34   35 am   BACKBONE|DICT|INTERRES
    71   34  104 1    
    72   35   36 2    
    73   37   38 2    
    74   37   39 am   BACKBONE|DICT|INTERRES
    75   39   40 1    
    76   39  105 1    
    77   40   41 1    
    78   40   42 1    
    79   40  106 1    
    80   41  107 1    
    81   41  108 1    
    82   41  109 1    
    83   42   43 2    
    84   42   44 am   BACKBONE|DICT|INTERRES
    85   44   45 1    
    86   44  110 1    
    87   45   46 1    
    88   45   47 1    
    89   45  111 1    
    90   46  112 1    
    91   46  113 1    
    92   46  114 1    
    93   47   48 2    
    94   47   49 am   BACKBONE|DICT|INTERRES
    95   49   50 1    
    96   49  115 1    
    97   50   51 1    
    98   50   52 1    
    99   50  116 1    
   100   51  117 1    
   101   51  118 1    
   102   51  119 1    
   103   52   53 2    
   104   52   54 am   BACKBONE|DICT|INTERRES
   105   54   55 1    
   106   54  120 1    
   107   55   56 1    
   108   55   57 1    
   109   55  121 1    
   110   56  122 1    
   111   56  123 1    
   112   56  124 1    
   113   57   58 2    
   114   57   59 am   BACKBONE|DICT|INTERRES
   115   59   60 1    
   116   59  125 1    
   117   60   61 1    
   118   60   62 1    
   119   60  126 1    
   120   61  127 1    
   121   61  128 1    
   122   61  129 1    
   123   62   63 2    
   124   62   64 am   BACKBONE|DICT|INTERRES
   125   64   65 1    
   126   64  130 1    
   127   65   66 1    
   128   65   69 1    
   129   65  131 1    
   130   66   67 am   BACKBONE|DICT|INTERRES
   131   66   68 2    
   132   67  132 1    
   133   67  133 1    
   134   69   70 1    
   135   69  134 1    
   136   69  135 1    
   137   70   71 1    
   138   71  136 1    
   139   71  137 1    
@<TRIPOS>SUBSTRUCTURE
     1 UNK         1 GROUP             0       ****    0 ROOT    
