@<TRIPOS>MOLECULE
3R136
137   139    1
SMALL
USER_CHARGES


@<TRIPOS>ATOM
      1 CA         32.3707   27.3583   -2.3668 C.3       0 UNK        -0.1979 
      2 C          32.8139   25.9286   -2.6724 C.2       0 UNK         0.4864 
      3 O          33.7597   25.7422   -3.4365 O.2       0 UNK        -0.5359 
      4 N          32.1837   24.8929   -2.0998 N.am      1 UNK        -0.4318 
      5 CA         30.9912   24.9526   -1.2515 C.3       1 UNK         0.0824 
      6 C6         30.8608   23.6775   -0.3824 C.3       12 UNK        -0.0944 
      7 S7         29.7091   23.9205    1.0093 S.3       12 UNK        -0.2672 
      8 C8         30.8337   23.8669    2.4376 C.3       12 UNK         0.0333 
      9 C9         30.1194   24.3382    3.6934 C.ar      12 UNK        -0.0807 
     10 C10        30.4905   25.5310    4.3162 C.ar      12 UNK        -0.0894 
     11 C11        29.8130   25.9910    5.4527 C.ar      12 UNK        -0.0804 
     12 C12        28.7302   25.2485    5.9395 C.ar      12 UNK        -0.0824 
     13 C13        28.3344   24.0597    5.3145 C.ar      12 UNK        -0.0762 
     14 C14        29.0605   23.5944    4.2140 C.ar      12 UNK        -0.0782 
     15 C15        27.1205   23.2884    5.8252 C.3       12 UNK         0.0230 
     16 S16        26.0534   22.6504    4.4836 S.3       12 UNK        -0.2608 
     17 C17        25.1177   24.1264    3.9603 C.3       12 UNK        -0.0989 
     18 CA         25.7988   24.9302    2.8044 C.3       5 UNK         0.0716 
     19 N          24.8898   25.2868    1.7103 N.am      5 UNK        -0.4135 
     20 C          23.7303   25.9588    1.8091 C.2       4 UNK         0.5031 
     21 O          23.2118   26.2734    2.8810 O.2       4 UNK        -0.5229 
     22 CA         23.0153   26.3751    0.5048 C.3       4 UNK         0.0329 
     23 CB         22.9885   27.9082    0.3759 C.3       4 UNK        -0.2001 
     24 N          23.6129   25.8199   -0.7104 N.am      4 UNK        -0.4303 
     25 C          23.5575   24.5378   -1.0956 C.2       3 UNK         0.5044 
     26 O          22.8880   23.6794   -0.5205 O.2       3 UNK        -0.5152 
     27 CA         24.4269   24.1359   -2.3046 C.3       3 UNK         0.0319 
     28 CB         23.5560   23.9783   -3.5617 C.3       3 UNK        -0.2001 
     29 N          25.5357   25.0565   -2.6005 N.am      3 UNK        -0.4354 
     30 C          26.5405   25.3615   -1.7665 C.2       2 UNK         0.4964 
     31 O          26.6236   24.9429   -0.6085 O.2       2 UNK        -0.5047 
     32 CA         27.5719   26.3730   -2.2862 C.3       2 UNK         0.0288 
     33 CB         27.1366   27.8029   -1.9263 C.3       2 UNK        -0.2113 
     34 N          28.8809   26.1152   -1.6924 N.am      2 UNK        -0.4145 
     35 C          29.7350   25.1779   -2.1169 C.2       1 UNK         0.5006 
     36 O          29.5654   24.5007   -3.1348 O.2       1 UNK        -0.5103 
     37 C          26.5273   26.2109    3.2597 C.2       5 UNK         0.5055 
     38 O          26.2535   26.7363    4.3415 O.2       5 UNK        -0.5220 
     39 N          27.3977   26.7352    2.3872 N.am      6 UNK        -0.4450 
     40 CA         28.1572   27.9572    2.6280 C.3       6 UNK         0.0367 
     41 CB         27.3048   29.1901    2.2759 C.3       6 UNK        -0.1929 
     42 C          29.4492   27.9412    1.8098 C.2       6 UNK         0.5070 
     43 O          29.4512   27.4579    0.6766 O.2       6 UNK        -0.5237 
     44 N          30.5056   28.5202    2.3848 N.am      7 UNK        -0.4739 
     45 CA         31.7983   28.7721    1.7569 C.3       7 UNK         0.0276 
     46 CB         32.6749   27.5031    1.7654 C.3       7 UNK        -0.1927 
     47 C          32.4287   29.9324    2.5315 C.2       7 UNK         0.5013 
     48 O          33.3553   29.7182    3.3136 O.2       7 UNK        -0.5193 
     49 N          31.8624   31.1355    2.3588 N.am      8 UNK        -0.4253 
     50 CA         32.1329   32.3463    3.1500 C.3       8 UNK         0.0242 
     51 CB         31.3227   33.5187    2.5741 C.3       8 UNK        -0.2000 
     52 C          33.6141   32.7420    3.2967 C.2       8 UNK         0.4948 
     53 O          33.9824   33.2992    4.3305 O.2       8 UNK        -0.5275 
     54 N          34.4424   32.4108    2.2963 N.am      9 UNK        -0.4246 
     55 CA         35.8982   32.5836    2.3248 C.3       9 UNK         0.0261 
     56 CB         36.4716   32.2599    0.9355 C.3       9 UNK        -0.1959 
     57 C          36.6080   31.7447    3.4075 C.2       9 UNK         0.5033 
     58 O          37.6803   32.1471    3.8619 O.2       9 UNK        -0.5390 
     59 N          36.0094   30.6115    3.7986 N.am      10 UNK        -0.4215 
     60 CA         36.4818   29.7366    4.8708 C.3       10 UNK         0.0240 
     61 CB         36.4580   28.2776    4.3832 C.3       10 UNK        -0.1982 
     62 C          35.6180   29.8953    6.1307 C.2       10 UNK         0.4970 
     63 O          36.1687   29.9757    7.2293 O.2       10 UNK        -0.4916 
     64 N          34.2902   29.9216    5.9556 N.am      11 UNK        -0.4279 
     65 CA         33.3022   29.9894    7.0437 C.3       11 UNK         0.1003 
     66 C          33.1983   31.3729    7.7457 C.2       11 UNK         0.5709 
     67 N          33.6317   32.4711    7.1389 N.am      11 UNK        -0.7358 
     68 O          32.7204   31.4485    8.8751 O.2       11 UNK        -0.4999 
     69 C69        31.9053   29.4952    6.5833 C.3       12 UNK        -0.0954 
     70 S70        31.9407   27.7790    5.9692 S.3       12 UNK        -0.2268 
     71 C71        30.1841   27.3102    6.1347 C.3       12 UNK         0.0203 
     72 H72        33.0274   28.0737   -2.8614 H         1 UNK         0.0888 
     73 H73        31.3578   27.5415   -2.7233 H         1 UNK         0.0888 
     74 H74        32.4119   27.5621   -1.2978 H         1 UNK         0.0888 
     75 H75        32.4838   23.9607   -2.3458 H         1 UNK         0.3017 
     76 H76        31.1047   25.7997   -0.5753 H         1 UNK         0.0873 
     77 H77        30.5266   22.8236   -0.9753 H         1 UNK         0.0745 
     78 H78        31.8360   23.3957    0.0183 H         1 UNK         0.0745 
     79 H79        31.1956   22.8476    2.5793 H         1 UNK         0.0705 
     80 H80        31.7086   24.4865    2.2372 H         1 UNK         0.0705 
     81 H81        31.3022   26.1071    3.9009 H         1 UNK         0.1334 
     82 H82        28.1759   25.6123    6.7939 H         1 UNK         0.1417 
     83 H83        28.7733   22.6731    3.7256 H         1 UNK         0.1562 
     84 H84        26.5200   23.9050    6.4958 H         1 UNK         0.0748 
     85 H85        27.4760   22.4441    6.4170 H         1 UNK         0.0748 
     86 H86        24.8749   24.7417    4.8279 H         1 UNK         0.0940 
     87 H87        24.1535   23.7437    3.6229 H         1 UNK         0.0940 
     88 H88        26.5548   24.2918    2.3431 H         1 UNK         0.0703 
     89 H89        25.2626   25.1059    0.7827 H         1 UNK         0.3081 
     90 H90        21.9859   26.0171    0.5724 H         1 UNK         0.0719 
     91 H91        23.9944   28.3255    0.3101 H         1 UNK         0.0809 
     92 H92        22.4335   28.2240   -0.5078 H         1 UNK         0.0809 
     93 H93        22.5031   28.3659    1.2391 H         1 UNK         0.0809 
     94 H94        24.1811   26.4476   -1.2595 H         1 UNK         0.2990 
     95 H95        24.8666   23.1643   -2.0697 H         1 UNK         0.0690 
     96 H96        24.1351   23.5934   -4.4014 H         1 UNK         0.0788 
     97 H97        23.1102   24.9263   -3.8655 H         1 UNK         0.0788 
     98 H98        22.7396   23.2759   -3.3866 H         1 UNK         0.0788 
     99 H99        25.5336   25.4697   -3.5226 H         1 UNK         0.2993 
    100 H100       27.6482   26.2869   -3.3725 H         1 UNK         0.0949 
    101 H101       26.1838   28.0551   -2.3933 H         1 UNK         0.0767 
    102 H102       27.0176   27.9270   -0.8494 H         1 UNK         0.0767 
    103 H103       27.8680   28.5364   -2.2665 H         1 UNK         0.0767 
    104 H104       29.0795   26.5973   -0.8144 H         1 UNK         0.3013 
    105 H105       27.6160   26.2516    1.5235 H         1 UNK         0.3121 
    106 H106       28.4240   28.0011    3.6848 H         1 UNK         0.0774 
    107 H107       26.9962   29.1814    1.2304 H         1 UNK         0.0815 
    108 H108       27.8611   30.1129    2.4450 H         1 UNK         0.0815 
    109 H109       26.4048   29.2399    2.8889 H         1 UNK         0.0815 
    110 H110       30.4084   28.8970    3.3180 H         1 UNK         0.2987 
    111 H111       31.6453   29.0900    0.7232 H         1 UNK         0.0949 
    112 H112       32.9339   27.1921    2.7776 H         1 UNK         0.0806 
    113 H113       32.1767   26.6679    1.2774 H         1 UNK         0.0806 
    114 H114       33.6116   27.6785    1.2354 H         1 UNK         0.0806 
    115 H115       31.1032   31.2050    1.6959 H         1 UNK         0.3010 
    116 H116       31.7650   32.1480    4.1588 H         1 UNK         0.0829 
    117 H117       30.2526   33.3116    2.5938 H         1 UNK         0.0813 
    118 H118       31.4834   34.4283    3.1551 H         1 UNK         0.0813 
    119 H119       31.6053   33.7365    1.5434 H         1 UNK         0.0813 
    120 H120       34.0512   31.9568    1.4840 H         1 UNK         0.3038 
    121 H121       36.1019   33.6341    2.5432 H         1 UNK         0.0769 
    122 H122       36.2792   31.2249    0.6500 H         1 UNK         0.0811 
    123 H123       37.5525   32.4072    0.9160 H         1 UNK         0.0811 
    124 H124       36.0454   32.9066    0.1684 H         1 UNK         0.0811 
    125 H125       35.1042   30.3745    3.3997 H         1 UNK         0.3204 
    126 H126       37.5110   29.9847    5.1387 H         1 UNK         0.0748 
    127 H127       35.4546   27.9609    4.0940 H         1 UNK         0.0771 
    128 H128       37.1120   28.1393    3.5221 H         1 UNK         0.0771 
    129 H129       36.8024   27.5989    5.1647 H         1 UNK         0.0771 
    130 H130       33.9104   29.8189    5.0176 H         1 UNK         0.2980 
    131 H131       33.6413   29.2979    7.8176 H         1 UNK         0.0545 
    132 H132       33.5589   33.3522    7.6211 H         1 UNK         0.3459 
    133 H133       33.9730   32.4551    6.1854 H         1 UNK         0.3459 
    134 H134       31.1936   29.5448    7.4098 H         1 UNK         0.0616 
    135 H135       31.5114   30.1379    5.7942 H         1 UNK         0.0616 
    136 H136       29.9486   27.2552    7.1987 H         1 UNK         0.0634 
    137 H137       29.5640   28.1049    5.7203 H         1 UNK         0.0634 
@<TRIPOS>BOND
     1    1    2 1    
     2    1   72 1    
     3    1   73 1    
     4    1   74 1    
     5    2    3 2    
     6    2    4 am   BACKBONE|DICT|INTERRES
     7    4    5 1    
     8    4   75 1    
     9    5    6 1    
    10    5   35 1    
    11    5   76 1    
    12    6    7 1    
    13    6   77 1    
    14    6   78 1    
    15    7    8 1    
    16    8    9 1    
    17    8   79 1    
    18    8   80 1    
    19    9   10 ar   
    20    9   14 ar   
    21   10   11 ar   
    22   10   81 1    
    23   11   12 ar   
    24   11   71 1    
    25   12   13 ar   
    26   12   82 1    
    27   13   14 ar   
    28   13   15 1    
    29   14   83 1    
    30   15   16 1    
    31   15   84 1    
    32   15   85 1    
    33   16   17 1    
    34   17   18 1    
    35   17   86 1    
    36   17   87 1    
    37   18   19 1    
    38   18   37 1    
    39   18   88 1    
    40   19   20 am   BACKBONE|DICT|INTERRES
    41   19   89 1    
    42   20   21 2    
    43   20   22 1    
    44   22   23 1    
    45   22   24 1    
    46   22   90 1    
    47   23   91 1    
    48   23   92 1    
    49   23   93 1    
    50   24   25 am   BACKBONE|DICT|INTERRES
    51   24   94 1    
    52   25   26 2    
    53   25   27 1    
    54   27   28 1    
    55   27   29 1    
    56   27   95 1    
    57   28   96 1    
    58   28   97 1    
    59   28   98 1    
    60   29   30 am   BACKBONE|DICT|INTERRES
    61   29   99 1    
    62   30   31 2    
    63   30   32 1    
    64   32   33 1    
    65   32   34 1    
    66   32  100 1    
    67   33  101 1    
    68   33  102 1    
    69   33  103 1    
    70   34   35 am   BACKBONE|DICT|INTERRES
    71   34  104 1    
    72   35   36 2    
    73   37   38 2    
    74   37   39 am   BACKBONE|DICT|INTERRES
    75   39   40 1    
    76   39  105 1    
    77   40   41 1    
    78   40   42 1    
    79   40  106 1    
    80   41  107 1    
    81   41  108 1    
    82   41  109 1    
    83   42   43 2    
    84   42   44 am   BACKBONE|DICT|INTERRES
    85   44   45 1    
    86   44  110 1    
    87   45   46 1    
    88   45   47 1    
    89   45  111 1    
    90   46  112 1    
    91   46  113 1    
    92   46  114 1    
    93   47   48 2    
    94   47   49 am   BACKBONE|DICT|INTERRES
    95   49   50 1    
    96   49  115 1    
    97   50   51 1    
    98   50   52 1    
    99   50  116 1    
   100   51  117 1    
   101   51  118 1    
   102   51  119 1    
   103   52   53 2    
   104   52   54 am   BACKBONE|DICT|INTERRES
   105   54   55 1    
   106   54  120 1    
   107   55   56 1    
   108   55   57 1    
   109   55  121 1    
   110   56  122 1    
   111   56  123 1    
   112   56  124 1    
   113   57   58 2    
   114   57   59 am   BACKBONE|DICT|INTERRES
   115   59   60 1    
   116   59  125 1    
   117   60   61 1    
   118   60   62 1    
   119   60  126 1    
   120   61  127 1    
   121   61  128 1    
   122   61  129 1    
   123   62   63 2    
   124   62   64 am   BACKBONE|DICT|INTERRES
   125   64   65 1    
   126   64  130 1    
   127   65   66 1    
   128   65   69 1    
   129   65  131 1    
   130   66   67 am   BACKBONE|DICT|INTERRES
   131   66   68 2    
   132   67  132 1    
   133   67  133 1    
   134   69   70 1    
   135   69  134 1    
   136   69  135 1    
   137   70   71 1    
   138   71  136 1    
   139   71  137 1    
@<TRIPOS>SUBSTRUCTURE
     1 UNK         1 GROUP             0       ****    0 ROOT    
