@<TRIPOS>MOLECULE
3R136
137   139    1
SMALL
USER_CHARGES


@<TRIPOS>ATOM
      1 CA         30.6850   28.6040   -3.5444 C.3       0 UNK        -0.1979 
      2 C          29.6508   28.0297   -2.5875 C.2       0 UNK         0.4864 
      3 O          28.5771   28.6115   -2.4265 O.2       0 UNK        -0.5359 
      4 N          29.9704   26.8990   -1.9459 N.am      1 UNK        -0.4318 
      5 CA         29.0760   26.1765   -1.0398 C.3       1 UNK         0.0824 
      6 C6         29.8535   25.2662   -0.0541 C.3       12 UNK        -0.0944 
      7 S7         31.0046   24.0941   -0.8512 S.3       12 UNK        -0.2672 
      8 C8         31.1147   22.7820    0.4098 C.3       12 UNK         0.0333 
      9 C9         31.5086   23.2924    1.7940 C.ar      12 UNK        -0.0807 
     10 C10        32.6097   24.1415    1.9668 C.ar      12 UNK        -0.0894 
     11 C11        32.9690   24.5938    3.2410 C.ar      12 UNK        -0.0804 
     12 C12        32.2434   24.1534    4.3494 C.ar      12 UNK        -0.0824 
     13 C13        31.1251   23.3321    4.1908 C.ar      12 UNK        -0.0762 
     14 C14        30.7663   22.8981    2.9122 C.ar      12 UNK        -0.0782 
     15 C15        30.2938   22.9406    5.4047 C.3       12 UNK         0.0230 
     16 S16        28.7120   23.8479    5.4833 S.3       12 UNK        -0.2608 
     17 C17        29.2354   25.5912    5.3132 C.3       12 UNK        -0.0989 
     18 CA         28.8159   26.1680    3.9363 C.3       5 UNK         0.0716 
     19 N          27.3582   26.3086    3.8684 N.am      5 UNK        -0.4135 
     20 C          26.6094   26.2904    2.7623 C.2       4 UNK         0.5031 
     21 O          27.0597   26.1365    1.6217 O.2       4 UNK        -0.5229 
     22 CA         25.1129   26.5651    2.9610 C.3       4 UNK         0.0329 
     23 CB         24.8010   28.0347    2.6349 C.3       4 UNK        -0.2001 
     24 N          24.3340   25.7048    2.0769 N.am      4 UNK        -0.4303 
     25 C          23.8605   24.4932    2.4008 C.2       3 UNK         0.5044 
     26 O          23.9050   24.0155    3.5350 O.2       3 UNK        -0.5152 
     27 CA         23.2533   23.6636    1.2517 C.3       3 UNK         0.0319 
     28 CB         21.7395   23.9086    1.1456 C.3       3 UNK        -0.2001 
     29 N          23.8886   23.9593   -0.0367 N.am      3 UNK        -0.4354 
     30 C          25.1585   23.6488   -0.3331 C.2       2 UNK         0.4964 
     31 O          25.8661   22.9257    0.3700 O.2       2 UNK        -0.5047 
     32 CA         25.7723   24.2998   -1.5775 C.3       2 UNK         0.0288 
     33 CB         24.8005   25.1698   -2.4064 C.3       2 UNK        -0.2113 
     34 N          26.8933   25.1064   -1.1079 N.am      2 UNK        -0.4145 
     35 C          27.9915   25.3957   -1.8090 C.2       1 UNK         0.5006 
     36 O          28.1714   25.0557   -2.9826 O.2       1 UNK        -0.5103 
     37 C          29.4766   27.5285    3.6225 C.2       5 UNK         0.5055 
     38 O          30.0707   28.1518    4.5047 O.2       5 UNK        -0.5220 
     39 N          29.2913   27.9934    2.3808 N.am      6 UNK        -0.4450 
     40 CA         29.5479   29.3689    1.9476 C.3       6 UNK         0.0367 
     41 CB         28.2402   29.9369    1.3654 C.3       6 UNK        -0.1929 
     42 C          30.7079   29.5078    0.9448 C.2       6 UNK         0.5070 
     43 O          30.7953   30.5397    0.2784 O.2       6 UNK        -0.5237 
     44 N          31.5896   28.5018    0.8360 N.am      7 UNK        -0.4739 
     45 CA         32.7148   28.5102   -0.1149 C.3       7 UNK         0.0276 
     46 CB         33.3895   27.1339   -0.1577 C.3       7 UNK        -0.1927 
     47 C          33.7574   29.6062    0.1627 C.2       7 UNK         0.5013 
     48 O          34.3113   30.1692   -0.7814 O.2       7 UNK        -0.5193 
     49 N          33.9683   29.9120    1.4474 N.am      8 UNK        -0.4253 
     50 CA         34.7997   31.0141    1.9317 C.3       8 UNK         0.0242 
     51 CB         35.7489   30.4719    3.0178 C.3       8 UNK        -0.2000 
     52 C          33.9078   32.1560    2.4525 C.2       8 UNK         0.4948 
     53 O          34.2046   32.7310    3.5006 O.2       8 UNK        -0.5275 
     54 N          32.7835   32.4149    1.7639 N.am      9 UNK        -0.4246 
     55 CA         31.6578   33.2947    2.1253 C.3       9 UNK         0.0261 
     56 CB         32.0980   34.7553    2.3465 C.3       9 UNK        -0.1959 
     57 C          30.8342   32.7601    3.3117 C.2       9 UNK         0.5033 
     58 O          29.6071   32.7139    3.2268 O.2       9 UNK        -0.5390 
     59 N          31.5239   32.3168    4.3640 N.am      10 UNK        -0.4215 
     60 CA         31.0121   31.5349    5.4781 C.3       10 UNK         0.0240 
     61 CB         30.3721   32.4517    6.5373 C.3       10 UNK        -0.1982 
     62 C          32.2079   30.7552    6.0304 C.2       10 UNK         0.4970 
     63 O          33.1058   31.3691    6.6098 O.2       10 UNK        -0.4916 
     64 N          32.2260   29.4357    5.8126 N.am      11 UNK        -0.4279 
     65 CA         33.2899   28.5364    6.2913 C.3       11 UNK         0.1003 
     66 C          33.3141   28.3343    7.8360 C.2       11 UNK         0.5709 
     67 N          32.2529   28.6542    8.5681 N.am      11 UNK        -0.7358 
     68 O          34.3191   27.8819    8.3792 O.2       11 UNK        -0.4999 
     69 C69        33.2448   27.1651    5.5722 C.3       12 UNK        -0.0954 
     70 S70        33.5631   27.2589    3.7773 S.3       12 UNK        -0.2268 
     71 C71        34.1344   25.5581    3.4270 C.3       12 UNK         0.0203 
     72 H72        30.2676   28.6764   -4.5483 H         1 UNK         0.0888 
     73 H73        30.9769   29.6036   -3.2228 H         1 UNK         0.0888 
     74 H74        31.5824   27.9873   -3.5939 H         1 UNK         0.0888 
     75 H75        30.8377   26.4255   -2.1542 H         1 UNK         0.3017 
     76 H76        28.5542   26.9277   -0.4437 H         1 UNK         0.0873 
     77 H77        29.1619   24.7103    0.5824 H         1 UNK         0.0745 
     78 H78        30.4378   25.8839    0.6272 H         1 UNK         0.0745 
     79 H79        30.1550   22.2639    0.4475 H         1 UNK         0.0705 
     80 H80        31.8500   22.0448    0.0854 H         1 UNK         0.0705 
     81 H81        33.1817   24.4536    1.1045 H         1 UNK         0.1334 
     82 H82        32.5307   24.4764    5.3393 H         1 UNK         0.1417 
     83 H83        29.9027   22.2576    2.7923 H         1 UNK         0.1562 
     84 H84        30.8494   23.1184    6.3268 H         1 UNK         0.0748 
     85 H85        30.0878   21.8696    5.3756 H         1 UNK         0.0748 
     86 H86        30.3104   25.6605    5.4600 H         1 UNK         0.0940 
     87 H87        28.7966   26.1715    6.1269 H         1 UNK         0.0940 
     88 H88        29.1457   25.4720    3.1615 H         1 UNK         0.0703 
     89 H89        26.8996   26.4688    4.7532 H         1 UNK         0.3081 
     90 H90        24.8389   26.3725    4.0007 H         1 UNK         0.0719 
     91 H91        25.3474   28.7067    3.2982 H         1 UNK         0.0809 
     92 H92        25.0777   28.2918    1.6113 H         1 UNK         0.0809 
     93 H93        23.7398   28.2513    2.7593 H         1 UNK         0.0809 
     94 H94        24.2828   25.9922    1.1114 H         1 UNK         0.2990 
     95 H95        23.4151   22.6080    1.4808 H         1 UNK         0.0690 
     96 H96        21.2890   23.2814    0.3760 H         1 UNK         0.0788 
     97 H97        21.5120   24.9487    0.9084 H         1 UNK         0.0788 
     98 H98        21.2407   23.6726    2.0868 H         1 UNK         0.0788 
     99 H99        23.3698   24.5378   -0.6822 H         1 UNK         0.2993 
    100 H100       26.1462   23.4887   -2.2062 H         1 UNK         0.0949 
    101 H101       24.4263   26.0232   -1.8392 H         1 UNK         0.0767 
    102 H102       25.2942   25.5634   -3.2953 H         1 UNK         0.0767 
    103 H103       23.9448   24.5895   -2.7543 H         1 UNK         0.0767 
    104 H104       26.8612   25.3767   -0.1258 H         1 UNK         0.3013 
    105 H105       28.7431   27.4179    1.7522 H         1 UNK         0.3121 
    106 H106       29.8175   29.9822    2.8081 H         1 UNK         0.0774 
    107 H107       28.3480   30.9927    1.1123 H         1 UNK         0.0815 
    108 H108       27.9400   29.4116    0.4575 H         1 UNK         0.0815 
    109 H109       27.4229   29.8658    2.0828 H         1 UNK         0.0815 
    110 H110       31.4906   27.6970    1.4378 H         1 UNK         0.2987 
    111 H111       32.3049   28.7127   -1.1054 H         1 UNK         0.0949 
    112 H112       33.8121   26.8633    0.8075 H         1 UNK         0.0806 
    113 H113       32.6885   26.3578   -0.4527 H         1 UNK         0.0806 
    114 H114       34.2044   27.1209   -0.8830 H         1 UNK         0.0806 
    115 H115       33.4625   29.3867    2.1479 H         1 UNK         0.3010 
    116 H116       35.4075   31.4242    1.1225 H         1 UNK         0.0829 
    117 H117       35.2003   30.1065    3.8870 H         1 UNK         0.0813 
    118 H118       36.4329   31.2476    3.3648 H         1 UNK         0.0813 
    119 H119       36.3578   29.6512    2.6381 H         1 UNK         0.0813 
    120 H120       32.6056   31.8427    0.9469 H         1 UNK         0.3038 
    121 H121       30.9948   33.2837    1.2583 H         1 UNK         0.0769 
    122 H122       32.6510   35.1366    1.4881 H         1 UNK         0.0811 
    123 H123       32.7278   34.8690    3.2290 H         1 UNK         0.0811 
    124 H124       31.2307   35.4015    2.4868 H         1 UNK         0.0811 
    125 H125       32.5377   32.4250    4.3352 H         1 UNK         0.3204 
    126 H126       30.2589   30.8328    5.1146 H         1 UNK         0.0748 
    127 H127       29.5078   32.9793    6.1335 H         1 UNK         0.0771 
    128 H128       30.0280   31.8734    7.3955 H         1 UNK         0.0771 
    129 H129       31.0766   33.1987    6.9051 H         1 UNK         0.0771 
    130 H130       31.4504   28.9895    5.3243 H         1 UNK         0.2980 
    131 H131       34.2442   29.0035    6.0404 H         1 UNK         0.0545 
    132 H132       32.2842   28.5219    9.5666 H         1 UNK         0.3459 
    133 H133       31.4221   29.0190    8.1318 H         1 UNK         0.3459 
    134 H134       32.2709   26.7061    5.7300 H         1 UNK         0.0616 
    135 H135       33.9817   26.4873    6.0069 H         1 UNK         0.0616 
    136 H136       34.7848   25.2068    4.2290 H         1 UNK         0.0634 
    137 H137       34.7551   25.5756    2.5306 H         1 UNK         0.0634 
@<TRIPOS>BOND
     1    1    2 1    
     2    1   72 1    
     3    1   73 1    
     4    1   74 1    
     5    2    3 2    
     6    2    4 am   BACKBONE|DICT|INTERRES
     7    4    5 1    
     8    4   75 1    
     9    5    6 1    
    10    5   35 1    
    11    5   76 1    
    12    6    7 1    
    13    6   77 1    
    14    6   78 1    
    15    7    8 1    
    16    8    9 1    
    17    8   79 1    
    18    8   80 1    
    19    9   10 ar   
    20    9   14 ar   
    21   10   11 ar   
    22   10   81 1    
    23   11   12 ar   
    24   11   71 1    
    25   12   13 ar   
    26   12   82 1    
    27   13   14 ar   
    28   13   15 1    
    29   14   83 1    
    30   15   16 1    
    31   15   84 1    
    32   15   85 1    
    33   16   17 1    
    34   17   18 1    
    35   17   86 1    
    36   17   87 1    
    37   18   19 1    
    38   18   37 1    
    39   18   88 1    
    40   19   20 am   BACKBONE|DICT|INTERRES
    41   19   89 1    
    42   20   21 2    
    43   20   22 1    
    44   22   23 1    
    45   22   24 1    
    46   22   90 1    
    47   23   91 1    
    48   23   92 1    
    49   23   93 1    
    50   24   25 am   BACKBONE|DICT|INTERRES
    51   24   94 1    
    52   25   26 2    
    53   25   27 1    
    54   27   28 1    
    55   27   29 1    
    56   27   95 1    
    57   28   96 1    
    58   28   97 1    
    59   28   98 1    
    60   29   30 am   BACKBONE|DICT|INTERRES
    61   29   99 1    
    62   30   31 2    
    63   30   32 1    
    64   32   33 1    
    65   32   34 1    
    66   32  100 1    
    67   33  101 1    
    68   33  102 1    
    69   33  103 1    
    70   34   35 am   BACKBONE|DICT|INTERRES
    71   34  104 1    
    72   35   36 2    
    73   37   38 2    
    74   37   39 am   BACKBONE|DICT|INTERRES
    75   39   40 1    
    76   39  105 1    
    77   40   41 1    
    78   40   42 1    
    79   40  106 1    
    80   41  107 1    
    81   41  108 1    
    82   41  109 1    
    83   42   43 2    
    84   42   44 am   BACKBONE|DICT|INTERRES
    85   44   45 1    
    86   44  110 1    
    87   45   46 1    
    88   45   47 1    
    89   45  111 1    
    90   46  112 1    
    91   46  113 1    
    92   46  114 1    
    93   47   48 2    
    94   47   49 am   BACKBONE|DICT|INTERRES
    95   49   50 1    
    96   49  115 1    
    97   50   51 1    
    98   50   52 1    
    99   50  116 1    
   100   51  117 1    
   101   51  118 1    
   102   51  119 1    
   103   52   53 2    
   104   52   54 am   BACKBONE|DICT|INTERRES
   105   54   55 1    
   106   54  120 1    
   107   55   56 1    
   108   55   57 1    
   109   55  121 1    
   110   56  122 1    
   111   56  123 1    
   112   56  124 1    
   113   57   58 2    
   114   57   59 am   BACKBONE|DICT|INTERRES
   115   59   60 1    
   116   59  125 1    
   117   60   61 1    
   118   60   62 1    
   119   60  126 1    
   120   61  127 1    
   121   61  128 1    
   122   61  129 1    
   123   62   63 2    
   124   62   64 am   BACKBONE|DICT|INTERRES
   125   64   65 1    
   126   64  130 1    
   127   65   66 1    
   128   65   69 1    
   129   65  131 1    
   130   66   67 am   BACKBONE|DICT|INTERRES
   131   66   68 2    
   132   67  132 1    
   133   67  133 1    
   134   69   70 1    
   135   69  134 1    
   136   69  135 1    
   137   70   71 1    
   138   71  136 1    
   139   71  137 1    
@<TRIPOS>SUBSTRUCTURE
     1 UNK         1 GROUP             0       ****    0 ROOT    
