@<TRIPOS>MOLECULE
3R136
137   139    1
SMALL
USER_CHARGES


@<TRIPOS>ATOM
      1 CA         26.4093   18.3896    3.0581 C.3       0 UNK        -0.1979 
      2 C          26.6653   19.3701    1.9229 C.2       0 UNK         0.4864 
      3 O          26.0450   19.2555    0.8642 O.2       0 UNK        -0.5359 
      4 N          27.5800   20.3253    2.1323 N.am      1 UNK        -0.4318 
      5 CA         27.9237   21.3821    1.1747 C.3       1 UNK         0.0824 
      6 C6         29.2453   22.0922    1.5520 C.3       12 UNK        -0.0944 
      7 S7         30.6691   20.9588    1.5122 S.3       12 UNK        -0.2672 
      8 C8         31.6894   21.6406    2.8643 C.3       12 UNK         0.0333 
      9 C9         32.2671   23.0333    2.6010 C.ar      12 UNK        -0.0807 
     10 C10        32.5579   23.8619    3.6899 C.ar      12 UNK        -0.0894 
     11 C11        33.1650   25.1089    3.5062 C.ar      12 UNK        -0.0804 
     12 C12        33.4751   25.5280    2.2087 C.ar      12 UNK        -0.0824 
     13 C13        33.1681   24.7275    1.1043 C.ar      12 UNK        -0.0762 
     14 C14        32.5739   23.4792    1.3090 C.ar      12 UNK        -0.0782 
     15 C15        33.5313   25.1737   -0.3079 C.3       12 UNK         0.0230 
     16 S16        32.8889   26.8234   -0.7412 S.3       12 UNK        -0.2608 
     17 C17        31.0833   26.5538   -0.7886 C.3       12 UNK        -0.0989 
     18 CA         30.3136   27.7448   -0.1597 C.3       5 UNK         0.0716 
     19 N          28.9769   27.9029   -0.7332 N.am      5 UNK        -0.4135 
     20 C          28.5729   28.9687   -1.4407 C.2       4 UNK         0.5031 
     21 O          29.3188   29.8781   -1.8062 O.2       4 UNK        -0.5229 
     22 CA         27.0747   29.0615   -1.7972 C.3       4 UNK         0.0329 
     23 CB         26.8336   28.5578   -3.2296 C.3       4 UNK        -0.2001 
     24 N          26.1896   28.3367   -0.8814 N.am      4 UNK        -0.4303 
     25 C          26.1130   28.5241    0.4444 C.2       3 UNK         0.5044 
     26 O          26.7309   29.3983    1.0480 O.2       3 UNK        -0.5152 
     27 CA         25.2635   27.5211    1.2454 C.3       3 UNK         0.0319 
     28 CB         23.8764   28.1117    1.5416 C.3       3 UNK        -0.2001 
     29 N          25.1081   26.2049    0.6089 N.am      3 UNK        -0.4354 
     30 C          26.1066   25.3906    0.2366 C.2       2 UNK         0.4964 
     31 O          27.3044   25.6768    0.3354 O.2       2 UNK        -0.5047 
     32 CA         25.6933   24.0718   -0.4324 C.3       2 UNK         0.0288 
     33 CB         25.6000   24.2612   -1.9556 C.3       2 UNK        -0.2113 
     34 N          26.6490   23.0030   -0.1427 N.am      2 UNK        -0.4145 
     35 C          26.7842   22.4132    1.0523 C.2       1 UNK         0.5006 
     36 O          26.0790   22.6747    2.0315 O.2       1 UNK        -0.5103 
     37 C          30.2411   27.6419    1.3753 C.2       5 UNK         0.5055 
     38 O          31.0827   28.2299    2.0435 O.2       5 UNK        -0.5220 
     39 N          29.2527   26.9190    1.9225 N.am      6 UNK        -0.4450 
     40 CA         29.1801   26.5754    3.3472 C.3       6 UNK         0.0367 
     41 CB         28.1480   25.4520    3.5331 C.3       6 UNK        -0.1929 
     42 C          28.8671   27.7381    4.3095 C.2       6 UNK         0.5070 
     43 O          29.0592   27.5686    5.5153 O.2       6 UNK        -0.5237 
     44 N          28.3551   28.8717    3.8081 N.am      7 UNK        -0.4739 
     45 CA         27.9257   30.0213    4.6146 C.3       7 UNK         0.0276 
     46 CB         26.9637   30.8949    3.7901 C.3       7 UNK        -0.1927 
     47 C          29.0942   30.8394    5.2036 C.2       7 UNK         0.5013 
     48 O          29.2966   31.9897    4.8074 O.2       7 UNK        -0.5193 
     49 N          29.8190   30.2369    6.1572 N.am      8 UNK        -0.4253 
     50 CA         30.8487   30.8213    7.0275 C.3       8 UNK         0.0242 
     51 CB         30.1868   31.7008    8.1113 C.3       8 UNK        -0.2000 
     52 C          31.9578   31.5528    6.2503 C.2       8 UNK         0.4948 
     53 O          32.8968   30.9075    5.7877 O.2       8 UNK        -0.5275 
     54 N          31.8204   32.8772    6.0893 N.am      9 UNK        -0.4246 
     55 CA         32.7065   33.7327    5.2933 C.3       9 UNK         0.0261 
     56 CB         32.2545   35.1954    5.4277 C.3       9 UNK        -0.1959 
     57 C          32.7932   33.3290    3.8089 C.2       9 UNK         0.5033 
     58 O          33.8197   33.5886    3.1781 O.2       9 UNK        -0.5390 
     59 N          31.7497   32.6636    3.2882 N.am      10 UNK        -0.4215 
     60 CA         31.7183   32.0756    1.9462 C.3       10 UNK         0.0240 
     61 CB         30.3048   31.5510    1.6469 C.3       10 UNK        -0.1982 
     62 C          32.7705   30.9713    1.7166 C.2       10 UNK         0.4970 
     63 O          33.1150   30.7275    0.5590 O.2       10 UNK        -0.4916 
     64 N          33.2860   30.3530    2.7925 N.am      11 UNK        -0.4279 
     65 CA         34.3800   29.3713    2.7307 C.3       11 UNK         0.1003 
     66 C          35.7555   29.9807    2.3241 C.2       11 UNK         0.5709 
     67 N          35.9436   31.2969    2.3507 N.am      11 UNK        -0.7358 
     68 O          36.6720   29.2410    1.9736 O.2       11 UNK        -0.4999 
     69 C69        34.5273   28.5511    4.0444 C.3       12 UNK        -0.0954 
     70 S70        33.0059   27.6999    4.5987 S.3       12 UNK        -0.2268 
     71 C71        33.5312   25.9565    4.7228 C.3       12 UNK         0.0203 
     72 H72        26.6127   17.3713    2.7276 H         1 UNK         0.0888 
     73 H73        27.0372   18.5962    3.9247 H         1 UNK         0.0888 
     74 H74        25.3677   18.4447    3.3734 H         1 UNK         0.0888 
     75 H75        28.0500   20.3770    3.0240 H         1 UNK         0.3017 
     76 H76        28.0543   20.9118    0.1973 H         1 UNK         0.0873 
     77 H77        29.1674   22.5275    2.5491 H         1 UNK         0.0745 
     78 H78        29.4590   22.9180    0.8699 H         1 UNK         0.0745 
     79 H79        32.5202   20.9569    3.0425 H         1 UNK         0.0705 
     80 H80        31.0949   21.6449    3.7793 H         1 UNK         0.0705 
     81 H81        32.3376   23.5187    4.6918 H         1 UNK         0.1334 
     82 H82        33.9605   26.4787    2.0544 H         1 UNK         0.1417 
     83 H83        32.3738   22.8446    0.4571 H         1 UNK         0.1562 
     84 H84        33.1767   24.4563   -1.0497 H         1 UNK         0.0748 
     85 H85        34.6184   25.1913   -0.3956 H         1 UNK         0.0748 
     86 H86        30.8172   25.6068   -0.3144 H         1 UNK         0.0940 
     87 H87        30.8113   26.4454   -1.8398 H         1 UNK         0.0940 
     88 H88        30.8852   28.6539   -0.3617 H         1 UNK         0.0703 
     89 H89        28.2924   27.1965   -0.4858 H         1 UNK         0.3081 
     90 H90        26.7967   30.1164   -1.7505 H         1 UNK         0.0719 
     91 H91        27.4602   29.0952   -3.9430 H         1 UNK         0.0809 
     92 H92        27.0642   27.4962   -3.3287 H         1 UNK         0.0809 
     93 H93        25.7980   28.7079   -3.5355 H         1 UNK         0.0809 
     94 H94        25.6373   27.5935   -1.2823 H         1 UNK         0.2990 
     95 H95        25.7735   27.3649    2.1974 H         1 UNK         0.0690 
     96 H96        23.9623   29.0802    2.0369 H         1 UNK         0.0788 
     97 H97        23.3011   27.4635    2.2029 H         1 UNK         0.0788 
     98 H98        23.2979   28.2623    0.6292 H         1 UNK         0.0788 
     99 H99        24.1576   25.8941    0.4648 H         1 UNK         0.2993 
    100 H100       24.7150   23.7702   -0.0511 H         1 UNK         0.0949 
    101 H101       25.2923   23.3401   -2.4514 H         1 UNK         0.0767 
    102 H102       24.8646   25.0247   -2.2129 H         1 UNK         0.0767 
    103 H103       26.5546   24.5702   -2.3844 H         1 UNK         0.0767 
    104 H104       27.2915   22.7628   -0.8834 H         1 UNK         0.3013 
    105 H105       28.5752   26.4557    1.3205 H         1 UNK         0.3121 
    106 H106       30.1587   26.1833    3.6344 H         1 UNK         0.0774 
    107 H107       27.1332   25.7962    3.3352 H         1 UNK         0.0815 
    108 H108       28.3473   24.6161    2.8664 H         1 UNK         0.0815 
    109 H109       28.1679   25.0667    4.5534 H         1 UNK         0.0815 
    110 H110       28.2212   28.9446    2.8074 H         1 UNK         0.2987 
    111 H111       27.3549   29.6414    5.4650 H         1 UNK         0.0949 
    112 H112       26.6199   31.7539    4.3679 H         1 UNK         0.0806 
    113 H113       27.4398   31.2793    2.8875 H         1 UNK         0.0806 
    114 H114       26.0774   30.3351    3.4917 H         1 UNK         0.0806 
    115 H115       29.6293   29.2475    6.2984 H         1 UNK         0.3010 
    116 H116       31.3345   29.9853    7.5335 H         1 UNK         0.0829 
    117 H117       29.5762   32.4978    7.6857 H         1 UNK         0.0813 
    118 H118       29.5396   31.1035    8.7537 H         1 UNK         0.0813 
    119 H119       30.9358   32.1633    8.7560 H         1 UNK         0.0813 
    120 H120       30.9900   33.3117    6.4656 H         1 UNK         0.3038 
    121 H121       33.7109   33.6423    5.7120 H         1 UNK         0.0769 
    122 H122       31.2419   35.3411    5.0491 H         1 UNK         0.0811 
    123 H123       32.9117   35.8599    4.8647 H         1 UNK         0.0811 
    124 H124       32.2770   35.5251    6.4666 H         1 UNK         0.0811 
    125 H125       30.9398   32.4909    3.8800 H         1 UNK         0.3204 
    126 H126       31.9367   32.8769    1.2374 H         1 UNK         0.0748 
    127 H127       30.2402   31.1571    0.6316 H         1 UNK         0.0771 
    128 H128       30.0283   30.7432    2.3237 H         1 UNK         0.0771 
    129 H129       29.5570   32.3386    1.7391 H         1 UNK         0.0771 
    130 H130       32.9613   30.5911    3.7226 H         1 UNK         0.2980 
    131 H131       34.1194   28.6748    1.9335 H         1 UNK         0.0545 
    132 H132       36.8392   31.6714    2.0816 H         1 UNK         0.3459 
    133 H133       35.1981   31.9221    2.6286 H         1 UNK         0.3459 
    134 H134       34.8483   29.2047    4.8572 H         1 UNK         0.0616 
    135 H135       35.3207   27.8112    3.9288 H         1 UNK         0.0616 
    136 H136       34.6050   25.8911    4.8998 H         1 UNK         0.0634 
    137 H137       33.0579   25.5451    5.6155 H         1 UNK         0.0634 
@<TRIPOS>BOND
     1    1    2 1    
     2    1   72 1    
     3    1   73 1    
     4    1   74 1    
     5    2    3 2    
     6    2    4 am   BACKBONE|DICT|INTERRES
     7    4    5 1    
     8    4   75 1    
     9    5    6 1    
    10    5   35 1    
    11    5   76 1    
    12    6    7 1    
    13    6   77 1    
    14    6   78 1    
    15    7    8 1    
    16    8    9 1    
    17    8   79 1    
    18    8   80 1    
    19    9   10 ar   
    20    9   14 ar   
    21   10   11 ar   
    22   10   81 1    
    23   11   12 ar   
    24   11   71 1    
    25   12   13 ar   
    26   12   82 1    
    27   13   14 ar   
    28   13   15 1    
    29   14   83 1    
    30   15   16 1    
    31   15   84 1    
    32   15   85 1    
    33   16   17 1    
    34   17   18 1    
    35   17   86 1    
    36   17   87 1    
    37   18   19 1    
    38   18   37 1    
    39   18   88 1    
    40   19   20 am   BACKBONE|DICT|INTERRES
    41   19   89 1    
    42   20   21 2    
    43   20   22 1    
    44   22   23 1    
    45   22   24 1    
    46   22   90 1    
    47   23   91 1    
    48   23   92 1    
    49   23   93 1    
    50   24   25 am   BACKBONE|DICT|INTERRES
    51   24   94 1    
    52   25   26 2    
    53   25   27 1    
    54   27   28 1    
    55   27   29 1    
    56   27   95 1    
    57   28   96 1    
    58   28   97 1    
    59   28   98 1    
    60   29   30 am   BACKBONE|DICT|INTERRES
    61   29   99 1    
    62   30   31 2    
    63   30   32 1    
    64   32   33 1    
    65   32   34 1    
    66   32  100 1    
    67   33  101 1    
    68   33  102 1    
    69   33  103 1    
    70   34   35 am   BACKBONE|DICT|INTERRES
    71   34  104 1    
    72   35   36 2    
    73   37   38 2    
    74   37   39 am   BACKBONE|DICT|INTERRES
    75   39   40 1    
    76   39  105 1    
    77   40   41 1    
    78   40   42 1    
    79   40  106 1    
    80   41  107 1    
    81   41  108 1    
    82   41  109 1    
    83   42   43 2    
    84   42   44 am   BACKBONE|DICT|INTERRES
    85   44   45 1    
    86   44  110 1    
    87   45   46 1    
    88   45   47 1    
    89   45  111 1    
    90   46  112 1    
    91   46  113 1    
    92   46  114 1    
    93   47   48 2    
    94   47   49 am   BACKBONE|DICT|INTERRES
    95   49   50 1    
    96   49  115 1    
    97   50   51 1    
    98   50   52 1    
    99   50  116 1    
   100   51  117 1    
   101   51  118 1    
   102   51  119 1    
   103   52   53 2    
   104   52   54 am   BACKBONE|DICT|INTERRES
   105   54   55 1    
   106   54  120 1    
   107   55   56 1    
   108   55   57 1    
   109   55  121 1    
   110   56  122 1    
   111   56  123 1    
   112   56  124 1    
   113   57   58 2    
   114   57   59 am   BACKBONE|DICT|INTERRES
   115   59   60 1    
   116   59  125 1    
   117   60   61 1    
   118   60   62 1    
   119   60  126 1    
   120   61  127 1    
   121   61  128 1    
   122   61  129 1    
   123   62   63 2    
   124   62   64 am   BACKBONE|DICT|INTERRES
   125   64   65 1    
   126   64  130 1    
   127   65   66 1    
   128   65   69 1    
   129   65  131 1    
   130   66   67 am   BACKBONE|DICT|INTERRES
   131   66   68 2    
   132   67  132 1    
   133   67  133 1    
   134   69   70 1    
   135   69  134 1    
   136   69  135 1    
   137   70   71 1    
   138   71  136 1    
   139   71  137 1    
@<TRIPOS>SUBSTRUCTURE
     1 UNK         1 GROUP             0       ****    0 ROOT    
