@<TRIPOS>MOLECULE
3R136
137   139    1
SMALL
USER_CHARGES


@<TRIPOS>ATOM
      1 CA         28.9074   24.0343   -3.3067 C.3       0 UNK        -0.1979 
      2 C          28.7508   24.1532   -1.7991 C.2       0 UNK         0.4864 
      3 O          28.6263   25.2642   -1.2895 O.2       0 UNK        -0.5359 
      4 N          28.7610   23.0195   -1.0862 N.am      1 UNK        -0.4318 
      5 CA         28.6081   22.9370    0.3735 C.3       1 UNK         0.0824 
      6 C6         29.3292   21.6754    0.9147 C.3       12 UNK        -0.0944 
      7 S7         29.8664   21.8334    2.6528 S.3       12 UNK        -0.2672 
      8 C8         31.6727   21.6497    2.5285 C.3       12 UNK         0.0333 
      9 C9         32.3902   22.9906    2.4540 C.ar      12 UNK        -0.0807 
     10 C10        32.9227   23.5535    3.6173 C.ar      12 UNK        -0.0894 
     11 C11        33.6643   24.7362    3.5630 C.ar      12 UNK        -0.0804 
     12 C12        33.8611   25.3674    2.3303 C.ar      12 UNK        -0.0824 
     13 C13        33.3334   24.8164    1.1564 C.ar      12 UNK        -0.0762 
     14 C14        32.5884   23.6324    1.2266 C.ar      12 UNK        -0.0782 
     15 C15        33.6504   25.4460   -0.1965 C.3       12 UNK         0.0230 
     16 S16        33.0261   27.1477   -0.3722 S.3       12 UNK        -0.2608 
     17 C17        31.2371   26.8598   -0.5606 C.3       12 UNK        -0.0989 
     18 CA         30.3758   27.9472    0.1277 C.3       5 UNK         0.0716 
     19 N          29.0142   27.9717   -0.4165 N.am      5 UNK        -0.4135 
     20 C          28.0846   28.8938   -0.1264 C.2       4 UNK         0.5031 
     21 O          28.2787   29.8358    0.6402 O.2       4 UNK        -0.5229 
     22 CA         26.6843   28.7305   -0.7498 C.3       4 UNK         0.0329 
     23 CB         26.6861   27.9742   -2.0948 C.3       4 UNK        -0.2001 
     24 N          25.6971   28.1308    0.1595 N.am      4 UNK        -0.4303 
     25 C          25.8491   27.0313    0.9138 C.2       3 UNK         0.5044 
     26 O          26.9172   26.4383    1.0623 O.2       3 UNK        -0.5152 
     27 CA         24.6084   26.4605    1.6258 C.3       3 UNK         0.0319 
     28 CB         23.2783   27.1815    1.3067 C.3       3 UNK        -0.2001 
     29 N          24.5313   25.0181    1.3629 N.am      3 UNK        -0.4354 
     30 C          24.3697   24.4302    0.1672 C.2       2 UNK         0.4964 
     31 O          24.0289   25.0190   -0.8607 O.2       2 UNK        -0.5047 
     32 CA         24.7406   22.9389    0.0987 C.3       2 UNK         0.0288 
     33 CB         23.9923   22.1984   -1.0253 C.3       2 UNK        -0.2113 
     34 N          26.1826   22.8077   -0.1213 N.am      2 UNK        -0.4145 
     35 C          27.1243   22.9864    0.8188 C.2       1 UNK         0.5006 
     36 O          26.8490   23.1754    2.0051 O.2       1 UNK        -0.5103 
     37 C          30.3956   27.7939    1.6625 C.2       5 UNK         0.5055 
     38 O          31.2149   28.4353    2.3184 O.2       5 UNK        -0.5220 
     39 N          29.4723   26.9874    2.2062 N.am      6 UNK        -0.4450 
     40 CA         29.3175   26.7722    3.6447 C.3       6 UNK         0.0367 
     41 CB         28.5202   25.4823    3.8872 C.3       6 UNK        -0.1929 
     42 C          28.6533   27.9628    4.3601 C.2       6 UNK         0.5070 
     43 O          28.8334   28.1114    5.5687 O.2       6 UNK        -0.5237 
     44 N          27.8844   28.7732    3.6192 N.am      7 UNK        -0.4739 
     45 CA         27.2160   29.9729    4.1271 C.3       7 UNK         0.0276 
     46 CB         25.9217   30.2059    3.3296 C.3       7 UNK        -0.1927 
     47 C          28.1256   31.2117    4.0630 C.2       7 UNK         0.5013 
     48 O          28.0538   32.0606    4.9530 O.2       7 UNK        -0.5193 
     49 N          28.9416   31.3035    3.0052 N.am      8 UNK        -0.4253 
     50 CA         29.8902   32.3861    2.7454 C.3       8 UNK         0.0242 
     51 CB         30.3671   32.2673    1.2859 C.3       8 UNK        -0.2000 
     52 C          31.0968   32.3812    3.7004 C.2       8 UNK         0.4948 
     53 O          31.3635   31.3885    4.3807 O.2       8 UNK        -0.5275 
     54 N          31.8646   33.4806    3.6596 N.am      9 UNK        -0.4246 
     55 CA         33.1168   33.6943    4.4008 C.3       9 UNK         0.0261 
     56 CB         33.5660   35.1527    4.2065 C.3       9 UNK        -0.1959 
     57 C          34.2627   32.7207    4.0473 C.2       9 UNK         0.5033 
     58 O          35.2810   32.7141    4.7402 O.2       9 UNK        -0.5390 
     59 N          34.0769   31.9026    3.0016 N.am      10 UNK        -0.4215 
     60 CA         34.9135   30.7513    2.6570 C.3       10 UNK         0.0240 
     61 CB         34.4945   30.2324    1.2714 C.3       10 UNK        -0.1982 
     62 C          34.8518   29.6122    3.6966 C.2       10 UNK         0.4970 
     63 O          35.7413   28.7601    3.6907 O.2       10 UNK        -0.4916 
     64 N          33.8307   29.6156    4.5623 N.am      11 UNK        -0.4279 
     65 CA         33.6448   28.6730    5.6673 C.3       11 UNK         0.1003 
     66 C          33.2262   29.4044    6.9742 C.2       11 UNK         0.5709 
     67 N          32.8850   28.6652    8.0208 N.am      11 UNK        -0.7358 
     68 O          33.2379   30.6308    7.0692 O.2       11 UNK        -0.4999 
     69 C69        32.6870   27.5246    5.2502 C.3       12 UNK        -0.0954 
     70 S70        33.1042   25.9307    6.0221 S.3       12 UNK        -0.2268 
     71 C71        34.3151   25.2811    4.8281 C.3       12 UNK         0.0203 
     72 H72        29.7931   24.5784   -3.6334 H         1 UNK         0.0888 
     73 H73        29.0073   22.9978   -3.6280 H         1 UNK         0.0888 
     74 H74        28.0400   24.4640   -3.8071 H         1 UNK         0.0888 
     75 H75        28.8772   22.1373   -1.5653 H         1 UNK         0.3017 
     76 H76        29.0912   23.8172    0.8053 H         1 UNK         0.0873 
     77 H77        28.6993   20.7884    0.8211 H         1 UNK         0.0745 
     78 H78        30.2092   21.4663    0.3055 H         1 UNK         0.0745 
     79 H79        32.0151   21.1007    3.4071 H         1 UNK         0.0705 
     80 H80        31.9432   21.0256    1.6759 H         1 UNK         0.0705 
     81 H81        32.7862   23.0552    4.5676 H         1 UNK         0.1334 
     82 H82        34.4506   26.2733    2.2774 H         1 UNK         0.1417 
     83 H83        32.1953   23.1869    0.3230 H         1 UNK         0.1562 
     84 H84        33.2594   24.8384   -1.0143 H         1 UNK         0.0748 
     85 H85        34.7336   25.4623   -0.3243 H         1 UNK         0.0748 
     86 H86        30.9760   25.8673   -0.1884 H         1 UNK         0.0940 
     87 H87        31.0300   26.8400   -1.6318 H         1 UNK         0.0940 
     88 H88        30.8110   28.9220   -0.1034 H         1 UNK         0.0703 
     89 H89        28.7301   27.1402   -0.9315 H         1 UNK         0.3081 
     90 H90        26.3369   29.7446   -0.9537 H         1 UNK         0.0719 
     91 H91        27.4804   28.3265   -2.7543 H         1 UNK         0.0809 
     92 H92        26.8100   26.9005   -1.9619 H         1 UNK         0.0809 
     93 H93        25.7441   28.1232   -2.6224 H         1 UNK         0.0809 
     94 H94        24.7799   28.5530    0.1383 H         1 UNK         0.2990 
     95 H95        24.7959   26.5685    2.6951 H         1 UNK         0.0690 
     96 H96        23.3029   28.2188    1.6430 H         1 UNK         0.0788 
     97 H97        22.4443   26.7029    1.8202 H         1 UNK         0.0788 
     98 H98        23.0484   27.1835    0.2408 H         1 UNK         0.0788 
     99 H99        24.9212   24.4370    2.0952 H         1 UNK         0.2993 
    100 H100       24.4733   22.4691    1.0481 H         1 UNK         0.0949 
    101 H101       24.2252   21.1333   -1.0201 H         1 UNK         0.0767 
    102 H102       22.9127   22.2944   -0.9018 H         1 UNK         0.0767 
    103 H103       24.2440   22.5909   -2.0115 H         1 UNK         0.0767 
    104 H104       26.4839   22.6912   -1.0771 H         1 UNK         0.3013 
    105 H105       28.7581   26.5771    1.6072 H         1 UNK         0.3121 
    106 H106       30.3094   26.6269    4.0718 H         1 UNK         0.0774 
    107 H107       28.9959   24.6276    3.4072 H         1 UNK         0.0815 
    108 H108       28.4553   25.2596    4.9528 H         1 UNK         0.0815 
    109 H109       27.5009   25.5548    3.5072 H         1 UNK         0.0815 
    110 H110       27.8254   28.5997    2.6250 H         1 UNK         0.2987 
    111 H111       26.9426   29.8173    5.1733 H         1 UNK         0.0949 
    112 H112       26.1207   30.3741    2.2707 H         1 UNK         0.0806 
    113 H113       25.2455   29.3551    3.4137 H         1 UNK         0.0806 
    114 H114       25.3881   31.0810    3.7028 H         1 UNK         0.0806 
    115 H115       28.8842   30.5821    2.2925 H         1 UNK         0.3010 
    116 H116       29.3621   33.3338    2.8702 H         1 UNK         0.0829 
    117 H117       30.8868   31.3239    1.1105 H         1 UNK         0.0813 
    118 H118       29.5273   32.3157    0.5922 H         1 UNK         0.0813 
    119 H119       31.0485   33.0743    1.0145 H         1 UNK         0.0813 
    120 H120       31.5755   34.2403    3.0593 H         1 UNK         0.3038 
    121 H121       32.8965   33.5422    5.4597 H         1 UNK         0.0769 
    122 H122       33.7855   35.3713    3.1606 H         1 UNK         0.0811 
    123 H123       34.4701   35.3643    4.7793 H         1 UNK         0.0811 
    124 H124       32.8024   35.8533    4.5450 H         1 UNK         0.0811 
    125 H125       33.2080   31.9885    2.4966 H         1 UNK         0.3204 
    126 H126       35.9500   31.0902    2.6030 H         1 UNK         0.0748 
    127 H127       35.1163   29.3900    0.9647 H         1 UNK         0.0771 
    128 H128       33.4593   29.8870    1.2676 H         1 UNK         0.0771 
    129 H129       34.5963   31.0035    0.5076 H         1 UNK         0.0771 
    130 H130       33.1277   30.3474    4.5117 H         1 UNK         0.2980 
    131 H131       34.6233   28.2494    5.8998 H         1 UNK         0.0545 
    132 H132       32.6220   29.1180    8.8817 H         1 UNK         0.3459 
    133 H133       32.8719   27.6587    7.9506 H         1 UNK         0.3459 
    134 H134       31.6546   27.7808    5.4903 H         1 UNK         0.0616 
    135 H135       32.7100   27.3768    4.1703 H         1 UNK         0.0616 
    136 H136       34.8781   24.4793    5.3077 H         1 UNK         0.0634 
    137 H137       35.0412   26.0600    4.5892 H         1 UNK         0.0634 
@<TRIPOS>BOND
     1    1    2 1    
     2    1   72 1    
     3    1   73 1    
     4    1   74 1    
     5    2    3 2    
     6    2    4 am   BACKBONE|DICT|INTERRES
     7    4    5 1    
     8    4   75 1    
     9    5    6 1    
    10    5   35 1    
    11    5   76 1    
    12    6    7 1    
    13    6   77 1    
    14    6   78 1    
    15    7    8 1    
    16    8    9 1    
    17    8   79 1    
    18    8   80 1    
    19    9   10 ar   
    20    9   14 ar   
    21   10   11 ar   
    22   10   81 1    
    23   11   12 ar   
    24   11   71 1    
    25   12   13 ar   
    26   12   82 1    
    27   13   14 ar   
    28   13   15 1    
    29   14   83 1    
    30   15   16 1    
    31   15   84 1    
    32   15   85 1    
    33   16   17 1    
    34   17   18 1    
    35   17   86 1    
    36   17   87 1    
    37   18   19 1    
    38   18   37 1    
    39   18   88 1    
    40   19   20 am   BACKBONE|DICT|INTERRES
    41   19   89 1    
    42   20   21 2    
    43   20   22 1    
    44   22   23 1    
    45   22   24 1    
    46   22   90 1    
    47   23   91 1    
    48   23   92 1    
    49   23   93 1    
    50   24   25 am   BACKBONE|DICT|INTERRES
    51   24   94 1    
    52   25   26 2    
    53   25   27 1    
    54   27   28 1    
    55   27   29 1    
    56   27   95 1    
    57   28   96 1    
    58   28   97 1    
    59   28   98 1    
    60   29   30 am   BACKBONE|DICT|INTERRES
    61   29   99 1    
    62   30   31 2    
    63   30   32 1    
    64   32   33 1    
    65   32   34 1    
    66   32  100 1    
    67   33  101 1    
    68   33  102 1    
    69   33  103 1    
    70   34   35 am   BACKBONE|DICT|INTERRES
    71   34  104 1    
    72   35   36 2    
    73   37   38 2    
    74   37   39 am   BACKBONE|DICT|INTERRES
    75   39   40 1    
    76   39  105 1    
    77   40   41 1    
    78   40   42 1    
    79   40  106 1    
    80   41  107 1    
    81   41  108 1    
    82   41  109 1    
    83   42   43 2    
    84   42   44 am   BACKBONE|DICT|INTERRES
    85   44   45 1    
    86   44  110 1    
    87   45   46 1    
    88   45   47 1    
    89   45  111 1    
    90   46  112 1    
    91   46  113 1    
    92   46  114 1    
    93   47   48 2    
    94   47   49 am   BACKBONE|DICT|INTERRES
    95   49   50 1    
    96   49  115 1    
    97   50   51 1    
    98   50   52 1    
    99   50  116 1    
   100   51  117 1    
   101   51  118 1    
   102   51  119 1    
   103   52   53 2    
   104   52   54 am   BACKBONE|DICT|INTERRES
   105   54   55 1    
   106   54  120 1    
   107   55   56 1    
   108   55   57 1    
   109   55  121 1    
   110   56  122 1    
   111   56  123 1    
   112   56  124 1    
   113   57   58 2    
   114   57   59 am   BACKBONE|DICT|INTERRES
   115   59   60 1    
   116   59  125 1    
   117   60   61 1    
   118   60   62 1    
   119   60  126 1    
   120   61  127 1    
   121   61  128 1    
   122   61  129 1    
   123   62   63 2    
   124   62   64 am   BACKBONE|DICT|INTERRES
   125   64   65 1    
   126   64  130 1    
   127   65   66 1    
   128   65   69 1    
   129   65  131 1    
   130   66   67 am   BACKBONE|DICT|INTERRES
   131   66   68 2    
   132   67  132 1    
   133   67  133 1    
   134   69   70 1    
   135   69  134 1    
   136   69  135 1    
   137   70   71 1    
   138   71  136 1    
   139   71  137 1    
@<TRIPOS>SUBSTRUCTURE
     1 UNK         1 GROUP             0       ****    0 ROOT    
