@<TRIPOS>MOLECULE
3R136
137   139    1
SMALL
USER_CHARGES


@<TRIPOS>ATOM
      1 CA         25.5405   21.9303   -1.3031 C.3       0 UNK        -0.1979 
      2 C          26.0220   21.2035   -0.0495 C.2       0 UNK         0.4864 
      3 O          25.3434   20.2895    0.4156 O.2       0 UNK        -0.5359 
      4 N          27.1759   21.5621    0.5330 N.am      1 UNK        -0.4318 
      5 CA         28.0744   22.6532    0.1316 C.3       1 UNK         0.0824 
      6 C6         29.5265   22.4185    0.6202 C.3       12 UNK        -0.0944 
      7 S7         29.6839   22.1362    2.4184 S.3       12 UNK        -0.2672 
      8 C8         31.4619   21.7706    2.5660 C.3       12 UNK         0.0333 
      9 C9         32.3076   23.0338    2.6703 C.ar      12 UNK        -0.0807 
     10 C10        32.6904   23.5206    3.9250 C.ar      12 UNK        -0.0894 
     11 C11        33.5114   24.6484    4.0401 C.ar      12 UNK        -0.0804 
     12 C12        33.9301   25.2988    2.8718 C.ar      12 UNK        -0.0824 
     13 C13        33.5316   24.8424    1.6134 C.ar      12 UNK        -0.0762 
     14 C14        32.7347   23.6988    1.5171 C.ar      12 UNK        -0.0782 
     15 C15        33.9815   25.5842    0.3630 C.3       12 UNK         0.0230 
     16 S16        33.1118   27.1736    0.1670 S.3       12 UNK        -0.2608 
     17 C17        31.4643   26.6308   -0.4022 C.3       12 UNK        -0.0989 
     18 CA         30.3298   27.6102    0.0108 C.3       5 UNK         0.0716 
     19 N          29.1630   27.4753   -0.8487 N.am      5 UNK        -0.4135 
     20 C          28.9624   28.0628   -2.0306 C.2       4 UNK         0.5031 
     21 O          29.7791   28.7987   -2.5856 O.2       4 UNK        -0.5229 
     22 CA         27.6063   27.7833   -2.7029 C.3       4 UNK         0.0329 
     23 CB         27.6373   26.4394   -3.4493 C.3       4 UNK        -0.2001 
     24 N          26.5036   27.7773   -1.7384 N.am      4 UNK        -0.4303 
     25 C          26.0279   28.8620   -1.1128 C.2       3 UNK         0.5044 
     26 O          26.3974   30.0098   -1.3619 O.2       3 UNK        -0.5152 
     27 CA         24.9852   28.6392   -0.0021 C.3       3 UNK         0.0319 
     28 CB         23.5642   28.4805   -0.5788 C.3       3 UNK        -0.2001 
     29 N          25.3393   27.5553    0.9275 N.am      3 UNK        -0.4354 
     30 C          25.3564   26.2342    0.7040 C.2       2 UNK         0.4964 
     31 O          24.9863   25.7040   -0.3464 O.2       2 UNK        -0.5047 
     32 CA         25.9028   25.3680    1.8534 C.3       2 UNK         0.0288 
     33 CB         24.7820   25.0170    2.8447 C.3       2 UNK        -0.2113 
     34 N          26.5412   24.1292    1.3978 N.am      2 UNK        -0.4145 
     35 C          27.5652   24.0539    0.5335 C.2       1 UNK         0.5006 
     36 O          28.1069   25.0401    0.0364 O.2       1 UNK        -0.5103 
     37 C          29.8445   27.4796    1.4706 C.2       5 UNK         0.5055 
     38 O          28.7250   27.9001    1.7810 O.2       5 UNK        -0.5220 
     39 N          30.6864   26.9085    2.3421 N.am      6 UNK        -0.4450 
     40 CA         30.4777   26.7306    3.7813 C.3       6 UNK         0.0367 
     41 CB         29.3236   25.7434    4.0595 C.3       6 UNK        -0.1929 
     42 C          30.3411   28.0842    4.4981 C.2       6 UNK         0.5070 
     43 O          31.0477   29.0271    4.1347 O.2       6 UNK        -0.5237 
     44 N          29.4507   28.1726    5.4958 N.am      7 UNK        -0.4739 
     45 CA         29.2076   29.3649    6.3168 C.3       7 UNK         0.0276 
     46 CB         28.1353   29.0478    7.3707 C.3       7 UNK        -0.1927 
     47 C          28.8187   30.6199    5.5154 C.2       7 UNK         0.5013 
     48 O          29.1895   31.7228    5.9164 O.2       7 UNK        -0.5193 
     49 N          28.1477   30.4316    4.3692 N.am      8 UNK        -0.4253 
     50 CA         27.7920   31.4943    3.4223 C.3       8 UNK         0.0242 
     51 CB         26.8495   30.9254    2.3501 C.3       8 UNK        -0.2000 
     52 C          29.0089   32.1734    2.7639 C.2       8 UNK         0.4948 
     53 O          28.8947   33.3261    2.3464 O.2       8 UNK        -0.5275 
     54 N          30.1450   31.4659    2.7030 N.am      9 UNK        -0.4246 
     55 CA         31.4329   31.9689    2.2233 C.3       9 UNK         0.0261 
     56 CB         31.9504   31.0115    1.1344 C.3       9 UNK        -0.1959 
     57 C          32.4567   32.0982    3.3669 C.2       9 UNK         0.5033 
     58 O          33.6380   32.3019    3.0831 O.2       9 UNK        -0.5390 
     59 N          32.0200   31.9248    4.6270 N.am      10 UNK        -0.4215 
     60 CA         32.8375   31.8335    5.8472 C.3       10 UNK         0.0240 
     61 CB         33.4092   33.2186    6.2161 C.3       10 UNK        -0.1982 
     62 C          33.9257   30.7372    5.7751 C.2       10 UNK         0.4970 
     63 O          35.0090   30.9079    6.3367 O.2       10 UNK        -0.4916 
     64 N          33.6209   29.6463    5.0588 N.am      11 UNK        -0.4279 
     65 CA         34.5344   28.5607    4.6761 C.3       11 UNK         0.1003 
     66 C          35.6751   28.9849    3.6934 C.2       11 UNK         0.5709 
     67 N          35.6136   30.1479    3.0545 N.am      11 UNK        -0.7358 
     68 O          36.6230   28.2373    3.4693 O.2       11 UNK        -0.4999 
     69 C69        35.0120   27.7336    5.9071 C.3       12 UNK        -0.0954 
     70 S70        35.4965   26.0102    5.5317 S.3       12 UNK        -0.2268 
     71 C71        33.8868   25.1524    5.4368 C.3       12 UNK         0.0203 
     72 H72        26.2601   21.8269   -2.1145 H         1 UNK         0.0888 
     73 H73        24.5956   21.5101   -1.6470 H         1 UNK         0.0888 
     74 H74        25.3759   22.9895   -1.1087 H         1 UNK         0.0888 
     75 H75        27.4775   21.0577    1.3555 H         1 UNK         0.3017 
     76 H76        28.1209   22.6642   -0.9587 H         1 UNK         0.0873 
     77 H77        30.1607   23.2584    0.3342 H         1 UNK         0.0745 
     78 H78        29.9387   21.5488    0.1060 H         1 UNK         0.0745 
     79 H79        31.7897   21.1642    1.7202 H         1 UNK         0.0705 
     80 H80        31.6132   21.1520    3.4519 H         1 UNK         0.0705 
     81 H81        32.3532   23.0113    4.8177 H         1 UNK         0.1334 
     82 H82        34.5692   26.1669    2.9246 H         1 UNK         0.1417 
     83 H83        32.4518   23.3225    0.5440 H         1 UNK         0.1562 
     84 H84        33.8361   24.9755   -0.5310 H         1 UNK         0.0748 
     85 H85        35.0535   25.7772    0.4283 H         1 UNK         0.0748 
     86 H86        31.2442   25.6155   -0.0682 H         1 UNK         0.0940 
     87 H87        31.5229   26.5700   -1.4903 H         1 UNK         0.0940 
     88 H88        30.6941   28.6328   -0.0947 H         1 UNK         0.0703 
     89 H89        28.4539   26.8475   -0.4780 H         1 UNK         0.3081 
     90 H90        27.4221   28.5765   -3.4306 H         1 UNK         0.0719 
     91 H91        28.4447   26.4194   -4.1826 H         1 UNK         0.0809 
     92 H92        27.7932   25.6012   -2.7686 H         1 UNK         0.0809 
     93 H93        26.7061   26.2642   -3.9882 H         1 UNK         0.0809 
     94 H94        26.1211   26.8767   -1.4660 H         1 UNK         0.2990 
     95 H95        24.9792   29.5467    0.6027 H         1 UNK         0.0690 
     96 H96        22.8266   28.3536    0.2136 H         1 UNK         0.0788 
     97 H97        23.4837   27.6273   -1.2526 H         1 UNK         0.0788 
     98 H98        23.2790   29.3657   -1.1486 H         1 UNK         0.0788 
     99 H99        25.7034   27.8736    1.8150 H         1 UNK         0.2993 
    100 H100       26.6657   25.9488    2.3726 H         1 UNK         0.0949 
    101 H101       24.0074   24.4086    2.3757 H         1 UNK         0.0767 
    102 H102       25.1686   24.4670    3.7031 H         1 UNK         0.0767 
    103 H103       24.3005   25.9170    3.2300 H         1 UNK         0.0767 
    104 H104       26.1550   23.2654    1.7483 H         1 UNK         0.3013 
    105 H105       31.5969   26.6341    1.9954 H         1 UNK         0.3121 
    106 H106       31.3914   26.2854    4.1657 H         1 UNK         0.0774 
    107 H107       29.3371   25.3991    5.0940 H         1 UNK         0.0815 
    108 H108       28.3490   26.1903    3.8695 H         1 UNK         0.0815 
    109 H109       29.4080   24.8586    3.4303 H         1 UNK         0.0815 
    110 H110       28.9105   27.3508    5.7256 H         1 UNK         0.2987 
    111 H111       30.1401   29.5944    6.8371 H         1 UNK         0.0949 
    112 H112       28.4452   28.2283    8.0196 H         1 UNK         0.0806 
    113 H113       27.9497   29.9114    8.0112 H         1 UNK         0.0806 
    114 H114       27.1850   28.7730    6.9112 H         1 UNK         0.0806 
    115 H115       27.9249   29.4844    4.0971 H         1 UNK         0.3010 
    116 H116       27.2527   32.2645    3.9778 H         1 UNK         0.0829 
    117 H117       25.9533   30.4946    2.7965 H         1 UNK         0.0813 
    118 H118       26.5238   31.7074    1.6626 H         1 UNK         0.0813 
    119 H119       27.3365   30.1546    1.7521 H         1 UNK         0.0813 
    120 H120       30.1596   30.5267    3.0898 H         1 UNK         0.3038 
    121 H121       31.3209   32.9616    1.7832 H         1 UNK         0.0769 
    122 H122       32.8946   31.3613    0.7149 H         1 UNK         0.0811 
    123 H123       31.2431   30.9364    0.3088 H         1 UNK         0.0811 
    124 H124       32.1214   30.0088    1.5290 H         1 UNK         0.0811 
    125 H125       31.0257   31.7892    4.7670 H         1 UNK         0.3204 
    126 H126       32.1587   31.5317    6.6461 H         1 UNK         0.0748 
    127 H127       33.9093   33.1924    7.1851 H         1 UNK         0.0771 
    128 H128       34.1386   33.5627    5.4820 H         1 UNK         0.0771 
    129 H129       32.6201   33.9678    6.2814 H         1 UNK         0.0771 
    130 H130       32.6897   29.5819    4.6520 H         1 UNK         0.2980 
    131 H131       33.8904   27.9137    4.0840 H         1 UNK         0.0545 
    132 H132       36.3553   30.3891    2.4176 H         1 UNK         0.3459 
    133 H133       34.8528   30.8036    3.2039 H         1 UNK         0.3459 
    134 H134       35.8567   28.2292    6.3882 H         1 UNK         0.0616 
    135 H135       34.2274   27.6962    6.6643 H         1 UNK         0.0616 
    136 H136       33.9287   24.3090    6.1277 H         1 UNK         0.0634 
    137 H137       33.0935   25.8044    5.8028 H         1 UNK         0.0634 
@<TRIPOS>BOND
     1    1    2 1    
     2    1   72 1    
     3    1   73 1    
     4    1   74 1    
     5    2    3 2    
     6    2    4 am   BACKBONE|DICT|INTERRES
     7    4    5 1    
     8    4   75 1    
     9    5    6 1    
    10    5   35 1    
    11    5   76 1    
    12    6    7 1    
    13    6   77 1    
    14    6   78 1    
    15    7    8 1    
    16    8    9 1    
    17    8   79 1    
    18    8   80 1    
    19    9   10 ar   
    20    9   14 ar   
    21   10   11 ar   
    22   10   81 1    
    23   11   12 ar   
    24   11   71 1    
    25   12   13 ar   
    26   12   82 1    
    27   13   14 ar   
    28   13   15 1    
    29   14   83 1    
    30   15   16 1    
    31   15   84 1    
    32   15   85 1    
    33   16   17 1    
    34   17   18 1    
    35   17   86 1    
    36   17   87 1    
    37   18   19 1    
    38   18   37 1    
    39   18   88 1    
    40   19   20 am   BACKBONE|DICT|INTERRES
    41   19   89 1    
    42   20   21 2    
    43   20   22 1    
    44   22   23 1    
    45   22   24 1    
    46   22   90 1    
    47   23   91 1    
    48   23   92 1    
    49   23   93 1    
    50   24   25 am   BACKBONE|DICT|INTERRES
    51   24   94 1    
    52   25   26 2    
    53   25   27 1    
    54   27   28 1    
    55   27   29 1    
    56   27   95 1    
    57   28   96 1    
    58   28   97 1    
    59   28   98 1    
    60   29   30 am   BACKBONE|DICT|INTERRES
    61   29   99 1    
    62   30   31 2    
    63   30   32 1    
    64   32   33 1    
    65   32   34 1    
    66   32  100 1    
    67   33  101 1    
    68   33  102 1    
    69   33  103 1    
    70   34   35 am   BACKBONE|DICT|INTERRES
    71   34  104 1    
    72   35   36 2    
    73   37   38 2    
    74   37   39 am   BACKBONE|DICT|INTERRES
    75   39   40 1    
    76   39  105 1    
    77   40   41 1    
    78   40   42 1    
    79   40  106 1    
    80   41  107 1    
    81   41  108 1    
    82   41  109 1    
    83   42   43 2    
    84   42   44 am   BACKBONE|DICT|INTERRES
    85   44   45 1    
    86   44  110 1    
    87   45   46 1    
    88   45   47 1    
    89   45  111 1    
    90   46  112 1    
    91   46  113 1    
    92   46  114 1    
    93   47   48 2    
    94   47   49 am   BACKBONE|DICT|INTERRES
    95   49   50 1    
    96   49  115 1    
    97   50   51 1    
    98   50   52 1    
    99   50  116 1    
   100   51  117 1    
   101   51  118 1    
   102   51  119 1    
   103   52   53 2    
   104   52   54 am   BACKBONE|DICT|INTERRES
   105   54   55 1    
   106   54  120 1    
   107   55   56 1    
   108   55   57 1    
   109   55  121 1    
   110   56  122 1    
   111   56  123 1    
   112   56  124 1    
   113   57   58 2    
   114   57   59 am   BACKBONE|DICT|INTERRES
   115   59   60 1    
   116   59  125 1    
   117   60   61 1    
   118   60   62 1    
   119   60  126 1    
   120   61  127 1    
   121   61  128 1    
   122   61  129 1    
   123   62   63 2    
   124   62   64 am   BACKBONE|DICT|INTERRES
   125   64   65 1    
   126   64  130 1    
   127   65   66 1    
   128   65   69 1    
   129   65  131 1    
   130   66   67 am   BACKBONE|DICT|INTERRES
   131   66   68 2    
   132   67  132 1    
   133   67  133 1    
   134   69   70 1    
   135   69  134 1    
   136   69  135 1    
   137   70   71 1    
   138   71  136 1    
   139   71  137 1    
@<TRIPOS>SUBSTRUCTURE
     1 UNK         1 GROUP             0       ****    0 ROOT    
