@<TRIPOS>MOLECULE
3R136
137   139    1
SMALL
USER_CHARGES


@<TRIPOS>ATOM
      1 CA         25.8483   21.9256   -2.2558 C.3       0 UNK        -0.1979 
      2 C          26.8217   21.9705   -1.0882 C.2       0 UNK         0.4864 
      3 O          26.4048   21.8002    0.0584 O.2       0 UNK        -0.5359 
      4 N          28.1120   22.2087   -1.3699 N.am      1 UNK        -0.4318 
      5 CA         29.2064   22.2999   -0.3934 C.3       1 UNK         0.0824 
      6 C6         29.5243   20.9120    0.2407 C.3       12 UNK        -0.0944 
      7 S7         31.0667   20.7434    1.2121 S.3       12 UNK        -0.2672 
      8 C8         32.3595   21.5266    0.1894 C.3       12 UNK         0.0333 
      9 C9         32.5648   22.9984    0.5324 C.ar      12 UNK        -0.0807 
     10 C10        32.9134   23.3743    1.8347 C.ar      12 UNK        -0.0894 
     11 C11        33.1257   24.7178    2.1585 C.ar      12 UNK        -0.0804 
     12 C12        32.9948   25.6908    1.1648 C.ar      12 UNK        -0.0824 
     13 C13        32.6322   25.3316   -0.1371 C.ar      12 UNK        -0.0762 
     14 C14        32.4339   23.9839   -0.4516 C.ar      12 UNK        -0.0782 
     15 C15        32.4327   26.4036   -1.1987 C.3       12 UNK         0.0230 
     16 S16        30.6721   26.8288   -1.3968 S.3       12 UNK        -0.2608 
     17 C17        30.2832   27.4556    0.2716 C.3       12 UNK        -0.0989 
     18 CA         28.8983   28.1442    0.3632 C.3       5 UNK         0.0716 
     19 N          27.8224   27.2202   -0.0022 N.am      5 UNK        -0.4135 
     20 C          26.6347   27.5513   -0.5203 C.2       4 UNK         0.5031 
     21 O          26.2732   28.7104   -0.7216 O.2       4 UNK        -0.5229 
     22 CA         25.6758   26.3899   -0.8168 C.3       4 UNK         0.0329 
     23 CB         26.0669   25.6788   -2.1226 C.3       4 UNK        -0.2001 
     24 N          25.6568   25.4281    0.2877 N.am      4 UNK        -0.4303 
     25 C          24.9297   25.5758    1.4046 C.2       3 UNK         0.5044 
     26 O          24.1406   26.5026    1.5889 O.2       3 UNK        -0.5152 
     27 CA         25.1202   24.5229    2.5107 C.3       3 UNK         0.0319 
     28 CB         24.1608   23.3401    2.3057 C.3       3 UNK        -0.2001 
     29 N          26.4999   24.0354    2.5883 N.am      3 UNK        -0.4354 
     30 C          27.5137   24.7498    3.1024 C.2       2 UNK         0.4964 
     31 O          27.3637   25.8464    3.6380 O.2       2 UNK        -0.5047 
     32 CA         28.9362   24.1655    2.9980 C.3       2 UNK         0.0288 
     33 CB         29.3430   23.5006    4.3223 C.3       2 UNK        -0.2113 
     34 N          29.1326   23.2058    1.9086 N.am      2 UNK        -0.4145 
     35 C          28.9399   23.4494    0.6068 C.2       1 UNK         0.5006 
     36 O          28.5290   24.5292    0.1776 O.2       1 UNK        -0.5103 
     37 C          28.6896   28.7844    1.7556 C.2       5 UNK         0.5055 
     38 O          29.6608   29.2553    2.3440 O.2       5 UNK        -0.5220 
     39 N          27.4518   28.8231    2.2696 N.am      6 UNK        -0.4450 
     40 CA         27.1051   29.3097    3.6112 C.3       6 UNK         0.0367 
     41 CB         25.6026   29.0923    3.8495 C.3       6 UNK        -0.1929 
     42 C          27.4894   30.7763    3.8918 C.2       6 UNK         0.5070 
     43 O          27.6912   31.1337    5.0531 O.2       6 UNK        -0.5237 
     44 N          27.5998   31.5897    2.8342 N.am      7 UNK        -0.4739 
     45 CA         28.0209   32.9909    2.8896 C.3       7 UNK         0.0276 
     46 CB         27.1160   33.8031    1.9457 C.3       7 UNK        -0.1927 
     47 C          29.5066   33.1962    2.5287 C.2       7 UNK         0.5013 
     48 O          29.9500   34.3463    2.5098 O.2       7 UNK        -0.5193 
     49 N          30.2488   32.1227    2.2142 N.am      8 UNK        -0.4253 
     50 CA         31.6568   32.1947    1.8110 C.3       8 UNK         0.0242 
     51 CB         32.0488   30.9046    1.0719 C.3       8 UNK        -0.2000 
     52 C          32.5886   32.4147    3.0118 C.2       8 UNK         0.4948 
     53 O          32.2422   32.0622    4.1442 O.2       8 UNK        -0.5275 
     54 N          33.7836   32.9506    2.7305 N.am      9 UNK        -0.4246 
     55 CA         34.8608   33.1455    3.7019 C.3       9 UNK         0.0261 
     56 CB         36.0467   33.8495    3.0211 C.3       9 UNK        -0.1959 
     57 C          35.2948   31.8079    4.3248 C.2       9 UNK         0.5033 
     58 O          35.7336   30.9144    3.5972 O.2       9 UNK        -0.5390 
     59 N          35.1283   31.7022    5.6495 N.am      10 UNK        -0.4215 
     60 CA         35.3856   30.5239    6.4847 C.3       10 UNK         0.0240 
     61 CB         36.8870   30.1587    6.4838 C.3       10 UNK        -0.1982 
     62 C          34.4734   29.3143    6.1821 C.2       10 UNK         0.4970 
     63 O          34.8640   28.1857    6.4875 O.2       10 UNK        -0.4916 
     64 N          33.2704   29.5533    5.6390 N.am      11 UNK        -0.4279 
     65 CA         32.2337   28.5227    5.4593 C.3       11 UNK         0.1003 
     66 C          30.7810   29.0473    5.6307 C.2       11 UNK         0.5709 
     67 N          30.5094   30.3366    5.4749 N.am      11 UNK        -0.7358 
     68 O          29.8862   28.2741    5.9623 O.2       11 UNK        -0.4999 
     69 C69        32.4236   27.6930    4.1550 C.3       12 UNK        -0.0954 
     70 S70        32.0972   25.9173    4.4317 S.3       12 UNK        -0.2268 
     71 C71        33.4932   25.1145    3.5814 C.3       12 UNK         0.0203 
     72 H72        24.9509   22.4965   -2.0194 H         1 UNK         0.0888 
     73 H73        26.2839   22.3401   -3.1648 H         1 UNK         0.0888 
     74 H74        25.5522   20.8962   -2.4555 H         1 UNK         0.0888 
     75 H75        28.3797   22.3747   -2.3300 H         1 UNK         0.3017 
     76 H76        30.0684   22.6134   -0.9778 H         1 UNK         0.0873 
     77 H77        29.5847   20.1682   -0.5555 H         1 UNK         0.0745 
     78 H78        28.6961   20.5840    0.8716 H         1 UNK         0.0745 
     79 H79        32.1320   21.3855   -0.8683 H         1 UNK         0.0705 
     80 H80        33.2994   21.0022    0.3667 H         1 UNK         0.0705 
     81 H81        33.0156   22.6152    2.5983 H         1 UNK         0.1334 
     82 H82        33.1504   26.7315    1.4133 H         1 UNK         0.1417 
     83 H83        32.1668   23.7098   -1.4631 H         1 UNK         0.1562 
     84 H84        32.8235   26.0535   -2.1552 H         1 UNK         0.0748 
     85 H85        32.9976   27.3033   -0.9495 H         1 UNK         0.0748 
     86 H86        31.0804   28.1450    0.5520 H         1 UNK         0.0940 
     87 H87        30.3328   26.6252    0.9784 H         1 UNK         0.0940 
     88 H88        28.8942   28.9703   -0.3508 H         1 UNK         0.0703 
     89 H89        28.0478   26.2307    0.0992 H         1 UNK         0.3081 
     90 H90        24.6742   26.8054   -0.9479 H         1 UNK         0.0719 
     91 H91        26.1106   26.3857   -2.9523 H         1 UNK         0.0809 
     92 H92        27.0445   25.2004   -2.0516 H         1 UNK         0.0809 
     93 H93        25.3358   24.9165   -2.3894 H         1 UNK         0.0809 
     94 H94        26.3287   24.6722    0.2460 H         1 UNK         0.2990 
     95 H95        24.8692   24.9949    3.4633 H         1 UNK         0.0690 
     96 H96        24.2623   22.6031    3.1024 H         1 UNK         0.0788 
     97 H97        24.3352   22.8344    1.3557 H         1 UNK         0.0788 
     98 H98        23.1235   23.6776    2.3070 H         1 UNK         0.0788 
     99 H99        26.6977   23.1454    2.1495 H         1 UNK         0.2993 
    100 H100       29.6115   25.0037    2.8132 H         1 UNK         0.0949 
    101 H101       29.2527   24.2020    5.1533 H         1 UNK         0.0767 
    102 H102       28.7167   22.6373    4.5508 H         1 UNK         0.0767 
    103 H103       30.3812   23.1682    4.2951 H         1 UNK         0.0767 
    104 H104       29.4976   22.2974    2.1629 H         1 UNK         0.3013 
    105 H105       26.6977   28.4388    1.7193 H         1 UNK         0.3121 
    106 H106       27.6555   28.6938    4.3256 H         1 UNK         0.0774 
    107 H107       25.3398   28.0367    3.7736 H         1 UNK         0.0815 
    108 H108       25.3128   29.4248    4.8473 H         1 UNK         0.0815 
    109 H109       24.9953   29.6437    3.1307 H         1 UNK         0.0815 
    110 H110       27.4226   31.2040    1.9177 H         1 UNK         0.2987 
    111 H111       27.8868   33.3801    3.9013 H         1 UNK         0.0949 
    112 H112       26.0652   33.6974    2.2161 H         1 UNK         0.0806 
    113 H113       27.3525   34.8671    1.9918 H         1 UNK         0.0806 
    114 H114       27.2292   33.4887    0.9075 H         1 UNK         0.0806 
    115 H115       29.8618   31.1906    2.3342 H         1 UNK         0.3010 
    116 H116       31.7717   33.0340    1.1214 H         1 UNK         0.0829 
    117 H117       33.0417   30.9922    0.6295 H         1 UNK         0.0813 
    118 H118       32.0750   30.0491    1.7476 H         1 UNK         0.0813 
    119 H119       31.3532   30.6785    0.2636 H         1 UNK         0.0813 
    120 H120       34.0008   33.1740    1.7702 H         1 UNK         0.3038 
    121 H121       34.4816   33.8027    4.4874 H         1 UNK         0.0769 
    122 H122       36.8585   34.0173    3.7302 H         1 UNK         0.0811 
    123 H123       35.7579   34.8230    2.6246 H         1 UNK         0.0811 
    124 H124       36.4509   33.2573    2.1989 H         1 UNK         0.0811 
    125 H125       34.7323   32.4951    6.1368 H         1 UNK         0.3204 
    126 H126       35.1317   30.8261    7.5018 H         1 UNK         0.0748 
    127 H127       37.1069   29.3985    7.2344 H         1 UNK         0.0771 
    128 H128       37.2076   29.7629    5.5197 H         1 UNK         0.0771 
    129 H129       37.5070   31.0251    6.7141 H         1 UNK         0.0771 
    130 H130       33.0088   30.4986    5.3868 H         1 UNK         0.2980 
    131 H131       32.3519   27.8458    6.3084 H         1 UNK         0.0545 
    132 H132       31.1894   30.9871    5.0892 H         1 UNK         0.3459 
    133 H133       29.5471   30.6359    5.5769 H         1 UNK         0.3459 
    134 H134       31.7813   28.0515    3.3499 H         1 UNK         0.0616 
    135 H135       33.4420   27.8071    3.7825 H         1 UNK         0.0616 
    136 H136       34.3719   25.7604    3.5782 H         1 UNK         0.0634 
    137 H137       33.7752   24.2311    4.1561 H         1 UNK         0.0634 
@<TRIPOS>BOND
     1    1    2 1    
     2    1   72 1    
     3    1   73 1    
     4    1   74 1    
     5    2    3 2    
     6    2    4 am   BACKBONE|DICT|INTERRES
     7    4    5 1    
     8    4   75 1    
     9    5    6 1    
    10    5   35 1    
    11    5   76 1    
    12    6    7 1    
    13    6   77 1    
    14    6   78 1    
    15    7    8 1    
    16    8    9 1    
    17    8   79 1    
    18    8   80 1    
    19    9   10 ar   
    20    9   14 ar   
    21   10   11 ar   
    22   10   81 1    
    23   11   12 ar   
    24   11   71 1    
    25   12   13 ar   
    26   12   82 1    
    27   13   14 ar   
    28   13   15 1    
    29   14   83 1    
    30   15   16 1    
    31   15   84 1    
    32   15   85 1    
    33   16   17 1    
    34   17   18 1    
    35   17   86 1    
    36   17   87 1    
    37   18   19 1    
    38   18   37 1    
    39   18   88 1    
    40   19   20 am   BACKBONE|DICT|INTERRES
    41   19   89 1    
    42   20   21 2    
    43   20   22 1    
    44   22   23 1    
    45   22   24 1    
    46   22   90 1    
    47   23   91 1    
    48   23   92 1    
    49   23   93 1    
    50   24   25 am   BACKBONE|DICT|INTERRES
    51   24   94 1    
    52   25   26 2    
    53   25   27 1    
    54   27   28 1    
    55   27   29 1    
    56   27   95 1    
    57   28   96 1    
    58   28   97 1    
    59   28   98 1    
    60   29   30 am   BACKBONE|DICT|INTERRES
    61   29   99 1    
    62   30   31 2    
    63   30   32 1    
    64   32   33 1    
    65   32   34 1    
    66   32  100 1    
    67   33  101 1    
    68   33  102 1    
    69   33  103 1    
    70   34   35 am   BACKBONE|DICT|INTERRES
    71   34  104 1    
    72   35   36 2    
    73   37   38 2    
    74   37   39 am   BACKBONE|DICT|INTERRES
    75   39   40 1    
    76   39  105 1    
    77   40   41 1    
    78   40   42 1    
    79   40  106 1    
    80   41  107 1    
    81   41  108 1    
    82   41  109 1    
    83   42   43 2    
    84   42   44 am   BACKBONE|DICT|INTERRES
    85   44   45 1    
    86   44  110 1    
    87   45   46 1    
    88   45   47 1    
    89   45  111 1    
    90   46  112 1    
    91   46  113 1    
    92   46  114 1    
    93   47   48 2    
    94   47   49 am   BACKBONE|DICT|INTERRES
    95   49   50 1    
    96   49  115 1    
    97   50   51 1    
    98   50   52 1    
    99   50  116 1    
   100   51  117 1    
   101   51  118 1    
   102   51  119 1    
   103   52   53 2    
   104   52   54 am   BACKBONE|DICT|INTERRES
   105   54   55 1    
   106   54  120 1    
   107   55   56 1    
   108   55   57 1    
   109   55  121 1    
   110   56  122 1    
   111   56  123 1    
   112   56  124 1    
   113   57   58 2    
   114   57   59 am   BACKBONE|DICT|INTERRES
   115   59   60 1    
   116   59  125 1    
   117   60   61 1    
   118   60   62 1    
   119   60  126 1    
   120   61  127 1    
   121   61  128 1    
   122   61  129 1    
   123   62   63 2    
   124   62   64 am   BACKBONE|DICT|INTERRES
   125   64   65 1    
   126   64  130 1    
   127   65   66 1    
   128   65   69 1    
   129   65  131 1    
   130   66   67 am   BACKBONE|DICT|INTERRES
   131   66   68 2    
   132   67  132 1    
   133   67  133 1    
   134   69   70 1    
   135   69  134 1    
   136   69  135 1    
   137   70   71 1    
   138   71  136 1    
   139   71  137 1    
@<TRIPOS>SUBSTRUCTURE
     1 UNK         1 GROUP             0       ****    0 ROOT    
