@<TRIPOS>MOLECULE
3R136
137   139    1
SMALL
USER_CHARGES


@<TRIPOS>ATOM
      1 CA         29.2922   22.5218   -1.8656 C.3       0 UNK        -0.1979 
      2 C          28.5394   23.2027   -0.7344 C.2       0 UNK         0.4864 
      3 O          27.9821   24.2823   -0.9399 O.2       0 UNK        -0.5359 
      4 N          28.5221   22.5898    0.4572 N.am      1 UNK        -0.4318 
      5 CA         27.8340   23.0819    1.6576 C.3       1 UNK         0.0824 
      6 C6         28.1097   22.1970    2.9008 C.3       12 UNK        -0.0944 
      7 S7         29.8821   21.8844    3.2220 S.3       12 UNK        -0.2672 
      8 C8         30.3521   23.3069    4.2695 C.3       12 UNK         0.0333 
      9 C9         31.2828   24.3139    3.5914 C.ar      12 UNK        -0.0807 
     10 C10        32.1813   25.0448    4.3751 C.ar      12 UNK        -0.0894 
     11 C11        33.0298   25.9943    3.7967 C.ar      12 UNK        -0.0804 
     12 C12        32.9688   26.2276    2.4193 C.ar      12 UNK        -0.0824 
     13 C13        32.0673   25.5151    1.6236 C.ar      12 UNK        -0.0762 
     14 C14        31.2422   24.5537    2.2132 C.ar      12 UNK        -0.0782 
     15 C15        31.9581   25.7925    0.1290 C.3       12 UNK         0.0230 
     16 S16        31.0431   27.3313   -0.2216 S.3       12 UNK        -0.2608 
     17 C17        29.5277   27.1025    0.7669 C.3       12 UNK        -0.0989 
     18 CA         28.2763   27.7409    0.1213 C.3       5 UNK         0.0716 
     19 N          27.8773   27.0418   -1.0948 N.am      5 UNK        -0.4135 
     20 C          27.2441   27.5988   -2.1327 C.2       4 UNK         0.5031 
     21 O          26.9464   28.7927   -2.1938 O.2       4 UNK        -0.5229 
     22 CA         26.8500   26.6585   -3.2767 C.3       4 UNK         0.0329 
     23 CB         28.0892   26.1732   -4.0492 C.3       4 UNK        -0.2001 
     24 N          26.1177   25.5087   -2.7467 N.am      4 UNK        -0.4303 
     25 C          24.9015   25.1195   -3.1469 C.2       3 UNK         0.5044 
     26 O          24.2692   25.6520   -4.0602 O.2       3 UNK        -0.5152 
     27 CA         24.2762   23.9323   -2.3949 C.3       3 UNK         0.0319 
     28 CB         24.8248   22.6017   -2.9354 C.3       3 UNK        -0.2001 
     29 N          24.4839   23.9858   -0.9465 N.am      3 UNK        -0.4354 
     30 C          24.0006   24.9193   -0.1159 C.2       2 UNK         0.4964 
     31 O          23.2971   25.8605   -0.4827 O.2       2 UNK        -0.5047 
     32 CA         24.3588   24.7974    1.3780 C.3       2 UNK         0.0288 
     33 CB         23.3378   23.9219    2.1314 C.3       2 UNK        -0.2113 
     34 N          25.7443   24.3787    1.6401 N.am      2 UNK        -0.4145 
     35 C          26.3182   23.1910    1.4005 C.2       1 UNK         0.5006 
     36 O          25.7161   22.2136    0.9485 O.2       1 UNK        -0.5103 
     37 C          27.0885   27.7388    1.0970 C.2       5 UNK         0.5055 
     38 O          27.0229   26.8808    1.9814 O.2       5 UNK        -0.5220 
     39 N          26.1671   28.6949    0.9198 N.am      6 UNK        -0.4450 
     40 CA         25.1100   29.0054    1.8909 C.3       6 UNK         0.0367 
     41 CB         24.0665   29.9230    1.2355 C.3       6 UNK        -0.1929 
     42 C          25.6749   29.6468    3.1744 C.2       6 UNK         0.5070 
     43 O          25.0989   29.4814    4.2495 O.2       6 UNK        -0.5237 
     44 N          26.8096   30.3373    3.0311 N.am      7 UNK        -0.4739 
     45 CA         27.6685   30.8699    4.0791 C.3       7 UNK         0.0276 
     46 CB         27.1510   32.2462    4.5352 C.3       7 UNK        -0.1927 
     47 C          29.0828   30.9649    3.4878 C.2       7 UNK         0.5013 
     48 O          29.2341   30.9033    2.2626 O.2       7 UNK        -0.5193 
     49 N          30.0875   31.1269    4.3523 N.am      8 UNK        -0.4253 
     50 CA         31.4832   31.3310    3.9745 C.3       8 UNK         0.0242 
     51 CB         32.1999   29.9741    3.8457 C.3       8 UNK        -0.2000 
     52 C          32.1415   32.2129    5.0395 C.2       8 UNK         0.4948 
     53 O          31.8442   32.0493    6.2257 O.2       8 UNK        -0.5275 
     54 N          33.0182   33.1263    4.6037 N.am      9 UNK        -0.4246 
     55 CA         33.7475   34.0525    5.4780 C.3       9 UNK         0.0261 
     56 CB         34.1923   35.2755    4.6584 C.3       9 UNK        -0.1959 
     57 C          34.9600   33.4053    6.1711 C.2       9 UNK         0.5033 
     58 O          35.3762   33.8832    7.2276 O.2       9 UNK        -0.5390 
     59 N          35.5066   32.3451    5.5680 N.am      10 UNK        -0.4215 
     60 CA         36.6430   31.5631    6.0412 C.3       10 UNK         0.0240 
     61 CB         37.9606   32.2919    5.7130 C.3       10 UNK        -0.1982 
     62 C          36.5829   30.1889    5.3642 C.2       10 UNK         0.4970 
     63 O          35.8670   30.0332    4.3704 O.2       10 UNK        -0.4916 
     64 N          37.3371   29.2286    5.9065 N.am      11 UNK        -0.4279 
     65 CA         37.3986   27.8395    5.4252 C.3       11 UNK         0.1003 
     66 C          38.8394   27.2494    5.4193 C.2       11 UNK         0.5709 
     67 N          39.8851   28.0576    5.5554 N.am      11 UNK        -0.7358 
     68 O          39.0220   26.0430    5.2752 O.2       11 UNK        -0.4999 
     69 C69        36.3559   26.9454    6.1594 C.3       12 UNK        -0.0954 
     70 S70        35.4910   25.8060    5.0306 S.3       12 UNK        -0.2268 
     71 C71        33.9965   26.7769    4.6700 C.3       12 UNK         0.0203 
     72 H72        28.6161   22.3198   -2.6957 H         1 UNK         0.0888 
     73 H73        30.0900   23.1704   -2.2260 H         1 UNK         0.0888 
     74 H74        29.7363   21.5780   -1.5500 H         1 UNK         0.0888 
     75 H75        28.9822   21.6971    0.5642 H         1 UNK         0.3017 
     76 H76        28.2146   24.0836    1.8652 H         1 UNK         0.0873 
     77 H77        27.6360   21.2207    2.7778 H         1 UNK         0.0745 
     78 H78        27.6543   22.6337    3.7915 H         1 UNK         0.0745 
     79 H79        30.8366   22.9075    5.1620 H         1 UNK         0.0705 
     80 H80        29.4632   23.8341    4.6171 H         1 UNK         0.0705 
     81 H81        32.2243   24.8756    5.4427 H         1 UNK         0.1334 
     82 H82        33.6100   26.9726    1.9678 H         1 UNK         0.1417 
     83 H83        30.5551   24.0048    1.5893 H         1 UNK         0.1562 
     84 H84        31.4647   24.9641   -0.3821 H         1 UNK         0.0748 
     85 H85        32.9567   25.8661   -0.3039 H         1 UNK         0.0748 
     86 H86        29.7182   27.5321    1.7532 H         1 UNK         0.0940 
     87 H87        29.3523   26.0384    0.9234 H         1 UNK         0.0940 
     88 H88        28.5170   28.7808   -0.1124 H         1 UNK         0.0703 
     89 H89        28.0398   26.0357   -1.0972 H         1 UNK         0.3081 
     90 H90        26.2221   27.2301   -3.9635 H         1 UNK         0.0719 
     91 H91        28.6673   27.0164   -4.4296 H         1 UNK         0.0809 
     92 H92        28.7534   25.5760   -3.4232 H         1 UNK         0.0809 
     93 H93        27.8032   25.5631   -4.9060 H         1 UNK         0.0809 
     94 H94        26.5702   24.9956   -1.9945 H         1 UNK         0.2990 
     95 H95        23.1994   23.9566   -2.5749 H         1 UNK         0.0690 
     96 H96        24.3229   21.7502   -2.4756 H         1 UNK         0.0788 
     97 H97        25.8948   22.5002   -2.7489 H         1 UNK         0.0788 
     98 H98        24.6716   22.5246   -4.0127 H         1 UNK         0.0788 
     99 H99        25.0195   23.2314   -0.5269 H         1 UNK         0.2993 
    100 H100       24.2831   25.8033    1.7911 H         1 UNK         0.0949 
    101 H101       23.3119   22.9000    1.7522 H         1 UNK         0.0767 
    102 H102       23.5624   23.8797    3.1972 H         1 UNK         0.0767 
    103 H103       22.3306   24.3279    2.0282 H         1 UNK         0.0767 
    104 H104       26.3442   25.1460    1.9401 H         1 UNK         0.3013 
    105 H105       26.2582   29.3111    0.1220 H         1 UNK         0.3121 
    106 H106       24.6157   28.0763    2.1780 H         1 UNK         0.0774 
    107 H107       23.2585   30.1522    1.9317 H         1 UNK         0.0815 
    108 H108       24.5022   30.8712    0.9182 H         1 UNK         0.0815 
    109 H109       23.6160   29.4495    0.3627 H         1 UNK         0.0815 
    110 H110       27.2361   30.3936    2.1136 H         1 UNK         0.2987 
    111 H111       27.6859   30.1754    4.9220 H         1 UNK         0.0949 
    112 H112       26.1391   32.1771    4.9347 H         1 UNK         0.0806 
    113 H113       27.7802   32.6629    5.3226 H         1 UNK         0.0806 
    114 H114       27.1372   32.9630    3.7131 H         1 UNK         0.0806 
    115 H115       29.9027   31.2140    5.3442 H         1 UNK         0.3010 
    116 H116       31.5276   31.8525    3.0154 H         1 UNK         0.0829 
    117 H117       31.7294   29.3446    3.0896 H         1 UNK         0.0813 
    118 H118       33.2410   30.1076    3.5504 H         1 UNK         0.0813 
    119 H119       32.1944   29.4246    4.7878 H         1 UNK         0.0813 
    120 H120       33.1976   33.2017    3.6120 H         1 UNK         0.3038 
    121 H121       33.0700   34.3997    6.2616 H         1 UNK         0.0769 
    122 H122       34.7132   35.9981    5.2884 H         1 UNK         0.0811 
    123 H123       33.3384   35.7903    4.2175 H         1 UNK         0.0811 
    124 H124       34.8722   34.9980    3.8519 H         1 UNK         0.0811 
    125 H125       35.0800   31.9713    4.7289 H         1 UNK         0.3204 
    126 H126       36.5544   31.4213    7.1205 H         1 UNK         0.0748 
    127 H127       38.8246   31.7260    6.0628 H         1 UNK         0.0771 
    128 H128       38.0797   32.4418    4.6390 H         1 UNK         0.0771 
    129 H129       38.0045   33.2701    6.1923 H         1 UNK         0.0771 
    130 H130       37.8972   29.4340    6.7217 H         1 UNK         0.2980 
    131 H131       37.1431   27.8604    4.3641 H         1 UNK         0.0545 
    132 H132       40.8118   27.6608    5.5458 H         1 UNK         0.3459 
    133 H133       39.7690   29.0559    5.6166 H         1 UNK         0.3459 
    134 H134       36.8210   26.3628    6.9567 H         1 UNK         0.0616 
    135 H135       35.6030   27.5556    6.6612 H         1 UNK         0.0616 
    136 H136       34.2846   27.7098    4.1830 H         1 UNK         0.0634 
    137 H137       33.5032   27.0528    5.6033 H         1 UNK         0.0634 
@<TRIPOS>BOND
     1    1    2 1    
     2    1   72 1    
     3    1   73 1    
     4    1   74 1    
     5    2    3 2    
     6    2    4 am   BACKBONE|DICT|INTERRES
     7    4    5 1    
     8    4   75 1    
     9    5    6 1    
    10    5   35 1    
    11    5   76 1    
    12    6    7 1    
    13    6   77 1    
    14    6   78 1    
    15    7    8 1    
    16    8    9 1    
    17    8   79 1    
    18    8   80 1    
    19    9   10 ar   
    20    9   14 ar   
    21   10   11 ar   
    22   10   81 1    
    23   11   12 ar   
    24   11   71 1    
    25   12   13 ar   
    26   12   82 1    
    27   13   14 ar   
    28   13   15 1    
    29   14   83 1    
    30   15   16 1    
    31   15   84 1    
    32   15   85 1    
    33   16   17 1    
    34   17   18 1    
    35   17   86 1    
    36   17   87 1    
    37   18   19 1    
    38   18   37 1    
    39   18   88 1    
    40   19   20 am   BACKBONE|DICT|INTERRES
    41   19   89 1    
    42   20   21 2    
    43   20   22 1    
    44   22   23 1    
    45   22   24 1    
    46   22   90 1    
    47   23   91 1    
    48   23   92 1    
    49   23   93 1    
    50   24   25 am   BACKBONE|DICT|INTERRES
    51   24   94 1    
    52   25   26 2    
    53   25   27 1    
    54   27   28 1    
    55   27   29 1    
    56   27   95 1    
    57   28   96 1    
    58   28   97 1    
    59   28   98 1    
    60   29   30 am   BACKBONE|DICT|INTERRES
    61   29   99 1    
    62   30   31 2    
    63   30   32 1    
    64   32   33 1    
    65   32   34 1    
    66   32  100 1    
    67   33  101 1    
    68   33  102 1    
    69   33  103 1    
    70   34   35 am   BACKBONE|DICT|INTERRES
    71   34  104 1    
    72   35   36 2    
    73   37   38 2    
    74   37   39 am   BACKBONE|DICT|INTERRES
    75   39   40 1    
    76   39  105 1    
    77   40   41 1    
    78   40   42 1    
    79   40  106 1    
    80   41  107 1    
    81   41  108 1    
    82   41  109 1    
    83   42   43 2    
    84   42   44 am   BACKBONE|DICT|INTERRES
    85   44   45 1    
    86   44  110 1    
    87   45   46 1    
    88   45   47 1    
    89   45  111 1    
    90   46  112 1    
    91   46  113 1    
    92   46  114 1    
    93   47   48 2    
    94   47   49 am   BACKBONE|DICT|INTERRES
    95   49   50 1    
    96   49  115 1    
    97   50   51 1    
    98   50   52 1    
    99   50  116 1    
   100   51  117 1    
   101   51  118 1    
   102   51  119 1    
   103   52   53 2    
   104   52   54 am   BACKBONE|DICT|INTERRES
   105   54   55 1    
   106   54  120 1    
   107   55   56 1    
   108   55   57 1    
   109   55  121 1    
   110   56  122 1    
   111   56  123 1    
   112   56  124 1    
   113   57   58 2    
   114   57   59 am   BACKBONE|DICT|INTERRES
   115   59   60 1    
   116   59  125 1    
   117   60   61 1    
   118   60   62 1    
   119   60  126 1    
   120   61  127 1    
   121   61  128 1    
   122   61  129 1    
   123   62   63 2    
   124   62   64 am   BACKBONE|DICT|INTERRES
   125   64   65 1    
   126   64  130 1    
   127   65   66 1    
   128   65   69 1    
   129   65  131 1    
   130   66   67 am   BACKBONE|DICT|INTERRES
   131   66   68 2    
   132   67  132 1    
   133   67  133 1    
   134   69   70 1    
   135   69  134 1    
   136   69  135 1    
   137   70   71 1    
   138   71  136 1    
   139   71  137 1    
@<TRIPOS>SUBSTRUCTURE
     1 UNK         1 GROUP             0       ****    0 ROOT    
