@<TRIPOS>MOLECULE
3R136
137   139    1
SMALL
USER_CHARGES


@<TRIPOS>ATOM
      1 CA         27.8023   19.6355    0.3116 C.3       0 UNK        -0.1979 
      2 C          28.1849   20.5918   -0.8084 C.2       0 UNK         0.4864 
      3 O          27.9444   20.2915   -1.9791 O.2       0 UNK        -0.5359 
      4 N          28.7849   21.7358   -0.4577 N.am      1 UNK        -0.4318 
      5 CA         29.1392   22.8162   -1.3821 C.3       1 UNK         0.0824 
      6 C6         30.2724   23.7116   -0.8146 C.3       12 UNK        -0.0944 
      7 S7         29.9264   24.4592    0.8177 S.3       12 UNK        -0.2672 
      8 C8         30.6968   23.2735    1.9626 C.3       12 UNK         0.0333 
      9 C9         31.4926   23.9829    3.0463 C.ar      12 UNK        -0.0807 
     10 C10        32.8305   24.3208    2.8177 C.ar      12 UNK        -0.0894 
     11 C11        33.5931   24.9166    3.8257 C.ar      12 UNK        -0.0804 
     12 C12        33.0045   25.1814    5.0645 C.ar      12 UNK        -0.0824 
     13 C13        31.6650   24.8628    5.3027 C.ar      12 UNK        -0.0762 
     14 C14        30.9106   24.2646    4.2877 C.ar      12 UNK        -0.0782 
     15 C15        31.0624   25.1270    6.6756 C.3       12 UNK         0.0230 
     16 S16        30.3613   26.8032    6.8072 S.3       12 UNK        -0.2608 
     17 C17        28.7051   26.5803    6.0750 C.3       12 UNK        -0.0989 
     18 CA         28.5849   27.1972    4.6565 C.3       5 UNK         0.0716 
     19 N          27.6842   26.3967    3.8169 N.am      5 UNK        -0.4135 
     20 C          27.4538   26.5602    2.5066 C.2       4 UNK         0.5031 
     21 O          27.9766   27.4489    1.8298 O.2       4 UNK        -0.5229 
     22 CA         26.4794   25.5436    1.8728 C.3       4 UNK         0.0329 
     23 CB         25.3139   25.1589    2.8140 C.3       4 UNK        -0.2001 
     24 N          25.9457   25.9378    0.5652 N.am      4 UNK        -0.4303 
     25 C          25.2106   27.0210    0.2660 C.2       3 UNK         0.5044 
     26 O          24.9496   27.9166    1.0724 O.2       3 UNK        -0.5152 
     27 CA         24.5864   27.0673   -1.1493 C.3       3 UNK         0.0319 
     28 CB         24.4121   28.4918   -1.7169 C.3       3 UNK        -0.2001 
     29 N          25.2214   26.1786   -2.1322 N.am      3 UNK        -0.4354 
     30 C          26.4749   26.2493   -2.6038 C.2       2 UNK         0.4964 
     31 O          27.2871   27.1279   -2.3121 O.2       2 UNK        -0.5047 
     32 CA         26.9045   25.1077   -3.5414 C.3       2 UNK         0.0288 
     33 CB         27.3676   25.6542   -4.9028 C.3       2 UNK        -0.2113 
     34 N          27.9724   24.2916   -2.9565 N.am      2 UNK        -0.4145 
     35 C          27.8904   23.6257   -1.7947 C.2       1 UNK         0.5006 
     36 O          26.8895   23.6351   -1.0696 O.2       1 UNK        -0.5103 
     37 C          28.2089   28.6969    4.7164 C.2       5 UNK         0.5055 
     38 O          29.0726   29.5285    4.9923 O.2       5 UNK        -0.5220 
     39 N          26.9353   29.0214    4.4439 N.am      6 UNK        -0.4450 
     40 CA         26.4339   30.3899    4.3105 C.3       6 UNK         0.0367 
     41 CB         24.8991   30.3654    4.2307 C.3       6 UNK        -0.1929 
     42 C          27.0262   31.1230    3.0939 C.2       6 UNK         0.5070 
     43 O          27.2946   32.3209    3.1876 O.2       6 UNK        -0.5237 
     44 N          27.2294   30.3976    1.9853 N.am      7 UNK        -0.4739 
     45 CA         27.8971   30.9052    0.7878 C.3       7 UNK         0.0276 
     46 CB         27.3488   30.1932   -0.4528 C.3       7 UNK        -0.1927 
     47 C          29.4172   30.7407    0.8927 C.2       7 UNK         0.5013 
     48 O          30.1462   31.6852    0.5880 O.2       7 UNK        -0.5193 
     49 N          29.8794   29.5793    1.3786 N.am      8 UNK        -0.4253 
     50 CA         31.2929   29.2702    1.6303 C.3       8 UNK         0.0242 
     51 CB         31.4933   27.7441    1.6043 C.3       8 UNK        -0.2000 
     52 C          31.8362   29.9198    2.9224 C.2       8 UNK         0.4948 
     53 O          32.6281   29.3066    3.6393 O.2       8 UNK        -0.5275 
     54 N          31.4425   31.1732    3.1875 N.am      9 UNK        -0.4246 
     55 CA         31.7886   31.9575    4.3784 C.3       9 UNK         0.0261 
     56 CB         30.9720   33.2597    4.3699 C.3       9 UNK        -0.1959 
     57 C          33.2924   32.2568    4.5299 C.2       9 UNK         0.5033 
     58 O          33.7312   32.6024    5.6276 O.2       9 UNK        -0.5390 
     59 N          34.0562   32.0988    3.4402 N.am      10 UNK        -0.4215 
     60 CA         35.5173   32.1568    3.4109 C.3       10 UNK         0.0240 
     61 CB         35.9858   32.2044    1.9470 C.3       10 UNK        -0.1982 
     62 C          36.2007   30.9922    4.1553 C.2       10 UNK         0.4970 
     63 O          37.3676   31.1406    4.5219 O.2       10 UNK        -0.4916 
     64 N          35.4917   29.8736    4.3641 N.am      11 UNK        -0.4279 
     65 CA         35.9883   28.6948    5.0898 C.3       11 UNK         0.1003 
     66 C          34.9941   28.1324    6.1426 C.2       11 UNK         0.5709 
     67 N          33.7037   28.4362    6.0813 N.am      11 UNK        -0.7358 
     68 O          35.4107   27.4228    7.0551 O.2       11 UNK        -0.4999 
     69 C69        36.5381   27.6066    4.1290 C.3       12 UNK        -0.0954 
     70 S70        35.2919   26.9315    2.9721 S.3       12 UNK        -0.2268 
     71 C71        35.0623   25.2360    3.5962 C.3       12 UNK         0.0203 
     72 H72        28.0897   20.0179    1.2909 H         1 UNK         0.0888 
     73 H73        26.7246   19.4738    0.3140 H         1 UNK         0.0888 
     74 H74        28.2917   18.6727    0.1670 H         1 UNK         0.0888 
     75 H75        28.9090   21.9537    0.5191 H         1 UNK         0.3017 
     76 H76        29.5251   22.3513   -2.2923 H         1 UNK         0.0873 
     77 H77        31.1972   23.1361   -0.7584 H         1 UNK         0.0745 
     78 H78        30.4941   24.5245   -1.5085 H         1 UNK         0.0745 
     79 H79        29.9171   22.6564    2.4113 H         1 UNK         0.0705 
     80 H80        31.3528   22.5863    1.4270 H         1 UNK         0.0705 
     81 H81        33.2826   24.1050    1.8592 H         1 UNK         0.1334 
     82 H82        33.5948   25.6262    5.8525 H         1 UNK         0.1417 
     83 H83        29.8778   24.0014    4.4690 H         1 UNK         0.1562 
     84 H84        31.8364   25.0204    7.4372 H         1 UNK         0.0748 
     85 H85        30.3081   24.3770    6.9176 H         1 UNK         0.0748 
     86 H86        27.9608   26.9967    6.7572 H         1 UNK         0.0940 
     87 H87        28.4913   25.5112    6.0489 H         1 UNK         0.0940 
     88 H88        29.5621   27.1417    4.1753 H         1 UNK         0.0703 
     89 H89        27.1987   25.6459    4.2845 H         1 UNK         0.3081 
     90 H90        27.0632   24.6416    1.6866 H         1 UNK         0.0719 
     91 H91        24.7524   26.0346    3.1425 H         1 UNK         0.0809 
     92 H92        24.6135   24.4882    2.3157 H         1 UNK         0.0809 
     93 H93        25.6631   24.6338    3.7032 H         1 UNK         0.0809 
     94 H94        26.1379   25.2755   -0.1801 H         1 UNK         0.2990 
     95 H95        23.5812   26.6675   -1.0081 H         1 UNK         0.0690 
     96 H96        23.7524   28.4853   -2.5844 H         1 UNK         0.0788 
     97 H97        25.3593   28.9239   -2.0339 H         1 UNK         0.0788 
     98 H98        23.9682   29.1667   -0.9841 H         1 UNK         0.0788 
     99 H99        24.6546   25.3930   -2.4221 H         1 UNK         0.2993 
    100 H100       26.0494   24.4510   -3.7160 H         1 UNK         0.0949 
    101 H101       26.5867   26.2595   -5.3653 H         1 UNK         0.0767 
    102 H102       28.2529   26.2844   -4.8055 H         1 UNK         0.0767 
    103 H103       27.6038   24.8470   -5.5965 H         1 UNK         0.0767 
    104 H104       28.8371   24.2544   -3.4762 H         1 UNK         0.3013 
    105 H105       26.2878   28.2786    4.2264 H         1 UNK         0.3121 
    106 H106       26.7235   30.9441    5.2060 H         1 UNK         0.0774 
    107 H107       24.4980   31.3766    4.1487 H         1 UNK         0.0815 
    108 H108       24.5485   29.8049    3.3625 H         1 UNK         0.0815 
    109 H109       24.4610   29.9159    5.1219 H         1 UNK         0.0815 
    110 H110       27.0074   29.4081    1.9932 H         1 UNK         0.2987 
    111 H111       27.6856   31.9715    0.6777 H         1 UNK         0.0949 
    112 H112       27.4717   29.1111   -0.3896 H         1 UNK         0.0806 
    113 H113       26.2881   30.4083   -0.5726 H         1 UNK         0.0806 
    114 H114       27.8547   30.5293   -1.3588 H         1 UNK         0.0806 
    115 H115       29.2073   28.8471    1.6014 H         1 UNK         0.3010 
    116 H116       31.8811   29.6842    0.8089 H         1 UNK         0.0829 
    117 H117       31.1381   27.3133    0.6683 H         1 UNK         0.0813 
    118 H118       32.5476   27.4823    1.6987 H         1 UNK         0.0813 
    119 H119       30.9667   27.2486    2.4184 H         1 UNK         0.0813 
    120 H120       30.8353   31.6183    2.5084 H         1 UNK         0.3038 
    121 H121       31.4896   31.3703    5.2494 H         1 UNK         0.0769 
    122 H122       31.2058   33.8771    3.5017 H         1 UNK         0.0811 
    123 H123       31.1761   33.8559    5.2604 H         1 UNK         0.0811 
    124 H124       29.9010   33.0542    4.3581 H         1 UNK         0.0811 
    125 H125       33.5955   31.8266    2.5844 H         1 UNK         0.3204 
    126 H126       35.8261   33.0825    3.9012 H         1 UNK         0.0748 
    127 H127       35.5704   33.0660    1.4240 H         1 UNK         0.0771 
    128 H128       37.0722   32.2852    1.8872 H         1 UNK         0.0771 
    129 H129       35.6959   31.3056    1.4008 H         1 UNK         0.0771 
    130 H130       34.5349   29.8099    4.0334 H         1 UNK         0.2980 
    131 H131       36.8358   29.0148    5.6988 H         1 UNK         0.0545 
    132 H132       33.0815   28.0713    6.7835 H         1 UNK         0.3459 
    133 H133       33.3113   28.8793    5.2543 H         1 UNK         0.3459 
    134 H134       37.0104   26.8031    4.6956 H         1 UNK         0.0616 
    135 H135       37.3394   28.0357    3.5259 H         1 UNK         0.0616 
    136 H136       35.4922   24.5370    2.8774 H         1 UNK         0.0634 
    137 H137       35.6104   25.0847    4.5266 H         1 UNK         0.0634 
@<TRIPOS>BOND
     1    1    2 1    
     2    1   72 1    
     3    1   73 1    
     4    1   74 1    
     5    2    3 2    
     6    2    4 am   BACKBONE|DICT|INTERRES
     7    4    5 1    
     8    4   75 1    
     9    5    6 1    
    10    5   35 1    
    11    5   76 1    
    12    6    7 1    
    13    6   77 1    
    14    6   78 1    
    15    7    8 1    
    16    8    9 1    
    17    8   79 1    
    18    8   80 1    
    19    9   10 ar   
    20    9   14 ar   
    21   10   11 ar   
    22   10   81 1    
    23   11   12 ar   
    24   11   71 1    
    25   12   13 ar   
    26   12   82 1    
    27   13   14 ar   
    28   13   15 1    
    29   14   83 1    
    30   15   16 1    
    31   15   84 1    
    32   15   85 1    
    33   16   17 1    
    34   17   18 1    
    35   17   86 1    
    36   17   87 1    
    37   18   19 1    
    38   18   37 1    
    39   18   88 1    
    40   19   20 am   BACKBONE|DICT|INTERRES
    41   19   89 1    
    42   20   21 2    
    43   20   22 1    
    44   22   23 1    
    45   22   24 1    
    46   22   90 1    
    47   23   91 1    
    48   23   92 1    
    49   23   93 1    
    50   24   25 am   BACKBONE|DICT|INTERRES
    51   24   94 1    
    52   25   26 2    
    53   25   27 1    
    54   27   28 1    
    55   27   29 1    
    56   27   95 1    
    57   28   96 1    
    58   28   97 1    
    59   28   98 1    
    60   29   30 am   BACKBONE|DICT|INTERRES
    61   29   99 1    
    62   30   31 2    
    63   30   32 1    
    64   32   33 1    
    65   32   34 1    
    66   32  100 1    
    67   33  101 1    
    68   33  102 1    
    69   33  103 1    
    70   34   35 am   BACKBONE|DICT|INTERRES
    71   34  104 1    
    72   35   36 2    
    73   37   38 2    
    74   37   39 am   BACKBONE|DICT|INTERRES
    75   39   40 1    
    76   39  105 1    
    77   40   41 1    
    78   40   42 1    
    79   40  106 1    
    80   41  107 1    
    81   41  108 1    
    82   41  109 1    
    83   42   43 2    
    84   42   44 am   BACKBONE|DICT|INTERRES
    85   44   45 1    
    86   44  110 1    
    87   45   46 1    
    88   45   47 1    
    89   45  111 1    
    90   46  112 1    
    91   46  113 1    
    92   46  114 1    
    93   47   48 2    
    94   47   49 am   BACKBONE|DICT|INTERRES
    95   49   50 1    
    96   49  115 1    
    97   50   51 1    
    98   50   52 1    
    99   50  116 1    
   100   51  117 1    
   101   51  118 1    
   102   51  119 1    
   103   52   53 2    
   104   52   54 am   BACKBONE|DICT|INTERRES
   105   54   55 1    
   106   54  120 1    
   107   55   56 1    
   108   55   57 1    
   109   55  121 1    
   110   56  122 1    
   111   56  123 1    
   112   56  124 1    
   113   57   58 2    
   114   57   59 am   BACKBONE|DICT|INTERRES
   115   59   60 1    
   116   59  125 1    
   117   60   61 1    
   118   60   62 1    
   119   60  126 1    
   120   61  127 1    
   121   61  128 1    
   122   61  129 1    
   123   62   63 2    
   124   62   64 am   BACKBONE|DICT|INTERRES
   125   64   65 1    
   126   64  130 1    
   127   65   66 1    
   128   65   69 1    
   129   65  131 1    
   130   66   67 am   BACKBONE|DICT|INTERRES
   131   66   68 2    
   132   67  132 1    
   133   67  133 1    
   134   69   70 1    
   135   69  134 1    
   136   69  135 1    
   137   70   71 1    
   138   71  136 1    
   139   71  137 1    
@<TRIPOS>SUBSTRUCTURE
     1 UNK         1 GROUP             0       ****    0 ROOT    
