@<TRIPOS>MOLECULE
3R136
137   139    1
SMALL
USER_CHARGES


@<TRIPOS>ATOM
      1 CA         25.8113   20.3234    0.1303 C.3       0 UNK        -0.1979 
      2 C          26.6596   21.5256   -0.2575 C.2       0 UNK         0.4864 
      3 O          26.6280   21.9484   -1.4141 O.2       0 UNK        -0.5359 
      4 N          27.4100   22.0789    0.7000 N.am      1 UNK        -0.4318 
      5 CA         28.2546   23.2607    0.5358 C.3       1 UNK         0.0824 
      6 C6         29.5773   22.9775   -0.2295 C.3       12 UNK        -0.0944 
      7 S7         30.7363   21.8516    0.6282 S.3       12 UNK        -0.2672 
      8 C8         32.3565   22.4730    0.0680 C.3       12 UNK         0.0333 
      9 C9         32.6500   23.8660    0.6069 C.ar      12 UNK        -0.0807 
     10 C10        33.0882   24.0358    1.9218 C.ar      12 UNK        -0.0894 
     11 C11        33.3374   25.3115    2.4388 C.ar      12 UNK        -0.0804 
     12 C12        33.1213   26.4296    1.6181 C.ar      12 UNK        -0.0824 
     13 C13        32.6851   26.2732    0.2965 C.ar      12 UNK        -0.0762 
     14 C14        32.4801   24.9863   -0.2081 C.ar      12 UNK        -0.0782 
     15 C15        32.4562   27.4969   -0.5872 C.3       12 UNK         0.0230 
     16 S16        30.9113   27.4220   -1.5625 S.3       12 UNK        -0.2608 
     17 C17        29.6599   27.4388   -0.2383 C.3       12 UNK        -0.0989 
     18 CA         28.1966   27.4358   -0.7478 C.3       5 UNK         0.0716 
     19 N          27.2712   27.0703    0.3294 N.am      5 UNK        -0.4135 
     20 C          25.9845   26.7354    0.1448 C.2       4 UNK         0.5031 
     21 O          25.4734   26.6258   -0.9710 O.2       4 UNK        -0.5229 
     22 CA         25.1138   26.4480    1.3852 C.3       4 UNK         0.0329 
     23 CB         24.4321   25.0720    1.2703 C.3       4 UNK        -0.2001 
     24 N          25.8689   26.4964    2.6394 N.am      4 UNK        -0.4303 
     25 C          25.9828   27.5723    3.4322 C.2       3 UNK         0.5044 
     26 O          25.4138   28.6425    3.2181 O.2       3 UNK        -0.5152 
     27 CA         26.9013   27.4468    4.6662 C.3       3 UNK         0.0319 
     28 CB         26.0748   27.1315    5.9228 C.3       3 UNK        -0.2001 
     29 N          27.9568   26.4389    4.5190 N.am      3 UNK        -0.4354 
     30 C          28.9293   26.4899    3.5994 C.2       2 UNK         0.4964 
     31 O          29.0718   27.4279    2.8168 O.2       2 UNK        -0.5047 
     32 CA         29.8517   25.2671    3.4644 C.3       2 UNK         0.0288 
     33 CB         29.8553   24.3271    4.6907 C.3       2 UNK        -0.2113 
     34 N          29.5566   24.5156    2.2364 N.am      2 UNK        -0.4145 
     35 C          28.3803   23.9590    1.9050 C.2       1 UNK         0.5006 
     36 O          27.3857   24.0002    2.6346 O.2       1 UNK        -0.5103 
     37 C          27.8125   28.7994   -1.3615 C.2       5 UNK         0.5055 
     38 O          27.2902   29.6688   -0.6598 O.2       5 UNK        -0.5220 
     39 N          28.1366   28.9854   -2.6484 N.am      6 UNK        -0.4450 
     40 CA         28.0096   30.2630   -3.3597 C.3       6 UNK         0.0367 
     41 CB         28.2332   30.0308   -4.8626 C.3       6 UNK        -0.1929 
     42 C          28.9721   31.3463   -2.8335 C.2       6 UNK         0.5070 
     43 O          28.6829   32.5339   -2.9794 O.2       6 UNK        -0.5237 
     44 N          30.0819   30.9176   -2.2200 N.am      7 UNK        -0.4739 
     45 CA         31.0703   31.7582   -1.5498 C.3       7 UNK         0.0276 
     46 CB         32.3906   31.7075   -2.3424 C.3       7 UNK        -0.1927 
     47 C          31.2247   31.2834   -0.0957 C.2       7 UNK         0.5013 
     48 O          32.3385   30.9816    0.3363 O.2       7 UNK        -0.5193 
     49 N          30.0925   31.1835    0.6187 N.am      8 UNK        -0.4253 
     50 CA         30.0058   30.7545    2.0194 C.3       8 UNK         0.0242 
     51 CB         28.5320   30.7168    2.4559 C.3       8 UNK        -0.2000 
     52 C          30.8276   31.6347    2.9753 C.2       8 UNK         0.4948 
     53 O          30.9528   32.8429    2.7567 O.2       8 UNK        -0.5275 
     54 N          31.3562   31.0024    4.0247 N.am      9 UNK        -0.4246 
     55 CA         32.2425   31.5914    5.0208 C.3       9 UNK         0.0261 
     56 CB         33.6917   31.5596    4.4906 C.3       9 UNK        -0.1959 
     57 C          32.0908   30.8136    6.3348 C.2       9 UNK         0.5033 
     58 O          31.2616   29.9019    6.4205 O.2       9 UNK        -0.5390 
     59 N          32.9219   31.1621    7.3270 N.am      10 UNK        -0.4215 
     60 CA         32.9697   30.5689    8.6707 C.3       10 UNK         0.0240 
     61 CB         34.0326   31.3060    9.5029 C.3       10 UNK        -0.1982 
     62 C          33.2107   29.0456    8.7197 C.2       10 UNK         0.4970 
     63 O          32.9453   28.4380    9.7579 O.2       10 UNK        -0.4916 
     64 N          33.6839   28.4533    7.6144 N.am      11 UNK        -0.4279 
     65 CA         33.7518   27.0003    7.4129 C.3       11 UNK         0.1003 
     66 C          32.3669   26.2901    7.3164 C.2       11 UNK         0.5709 
     67 N          31.2662   27.0020    7.0933 N.am      11 UNK        -0.7358 
     68 O          32.2936   25.0728    7.4634 O.2       11 UNK        -0.4999 
     69 C69        34.6973   26.6333    6.2382 C.3       12 UNK        -0.0954 
     70 S70        34.0725   27.0763    4.5749 S.3       12 UNK        -0.2268 
     71 C71        33.8229   25.4014    3.8879 C.3       12 UNK         0.0203 
     72 H72        26.0862   19.4598   -0.4747 H         1 UNK         0.0888 
     73 H73        25.9379   20.0563    1.1794 H         1 UNK         0.0888 
     74 H74        24.7566   20.5380   -0.0400 H         1 UNK         0.0888 
     75 H75        27.3611   21.7294    1.6480 H         1 UNK         0.3017 
     76 H76        27.6890   23.9709   -0.0717 H         1 UNK         0.0873 
     77 H77        30.0624   23.9220   -0.4671 H         1 UNK         0.0745 
     78 H78        29.3497   22.5334   -1.1996 H         1 UNK         0.0745 
     79 H79        32.3894   22.4631   -1.0227 H         1 UNK         0.0705 
     80 H80        33.1331   21.7833    0.4020 H         1 UNK         0.0705 
     81 H81        33.2299   23.1658    2.5493 H         1 UNK         0.1334 
     82 H82        33.2933   27.4271    1.9964 H         1 UNK         0.1417 
     83 H83        32.1609   24.8591   -1.2339 H         1 UNK         0.1562 
     84 H84        33.2991   27.5962   -1.2720 H         1 UNK         0.0748 
     85 H85        32.4423   28.4028    0.0181 H         1 UNK         0.0748 
     86 H86        29.8429   28.2914    0.4145 H         1 UNK         0.0940 
     87 H87        29.8366   26.5539    0.3717 H         1 UNK         0.0940 
     88 H88        28.1034   26.6717   -1.5229 H         1 UNK         0.0703 
     89 H89        27.6134   27.2071    1.2729 H         1 UNK         0.3081 
     90 H90        24.3288   27.2068    1.4037 H         1 UNK         0.0719 
     91 H91        23.7799   25.0290    0.3971 H         1 UNK         0.0809 
     92 H92        25.1579   24.2647    1.1711 H         1 UNK         0.0809 
     93 H93        23.8138   24.8612    2.1430 H         1 UNK         0.0809 
     94 H94        26.3806   25.6517    2.8822 H         1 UNK         0.2990 
     95 H95        27.3866   28.4146    4.8097 H         1 UNK         0.0690 
     96 H96        26.6980   27.1267    6.8173 H         1 UNK         0.0788 
     97 H97        25.5824   26.1609    5.8491 H         1 UNK         0.0788 
     98 H98        25.2970   27.8810    6.0763 H         1 UNK         0.0788 
     99 H99        27.8811   25.6091    5.0896 H         1 UNK         0.2993 
    100 H100       30.8546   25.6763    3.3603 H         1 UNK         0.0949 
    101 H101       28.8999   23.8234    4.8393 H         1 UNK         0.0767 
    102 H102       30.6168   23.5547    4.5805 H         1 UNK         0.0767 
    103 H103       30.0888   24.8710    5.6053 H         1 UNK         0.0767 
    104 H104       30.3315   24.4122    1.5946 H         1 UNK         0.3013 
    105 H105       28.5766   28.2279   -3.1524 H         1 UNK         0.3121 
    106 H106       26.9914   30.6309   -3.2156 H         1 UNK         0.0774 
    107 H107       28.1174   30.9606   -5.4215 H         1 UNK         0.0815 
    108 H108       29.2344   29.6501   -5.0688 H         1 UNK         0.0815 
    109 H109       27.5119   29.3205   -5.2672 H         1 UNK         0.0815 
    110 H110       30.2224   29.9197   -2.1330 H         1 UNK         0.2987 
    111 H111       30.7335   32.7965   -1.5087 H         1 UNK         0.0949 
    112 H112       32.2529   32.0657   -3.3626 H         1 UNK         0.0806 
    113 H113       33.1503   32.3376   -1.8780 H         1 UNK         0.0806 
    114 H114       32.7911   30.6941   -2.3940 H         1 UNK         0.0806 
    115 H115       29.2217   31.4342    0.1721 H         1 UNK         0.3010 
    116 H116       30.4095   29.7420    2.0753 H         1 UNK         0.0829 
    117 H117       28.0523   31.6902    2.3477 H         1 UNK         0.0813 
    118 H118       28.4399   30.4203    3.5016 H         1 UNK         0.0813 
    119 H119       27.9633   29.9919    1.8742 H         1 UNK         0.0813 
    120 H120       31.1131   30.0365    4.2089 H         1 UNK         0.3038 
    121 H121       31.9414   32.6239    5.2104 H         1 UNK         0.0769 
    122 H122       34.3830   32.0601    5.1689 H         1 UNK         0.0811 
    123 H123       33.7720   32.0682    3.5294 H         1 UNK         0.0811 
    124 H124       34.0464   30.5371    4.3520 H         1 UNK         0.0811 
    125 H125       33.5702   31.9179    7.1579 H         1 UNK         0.3204 
    126 H126       31.9952   30.7442    9.1309 H         1 UNK         0.0748 
    127 H127       34.0725   30.9175   10.5218 H         1 UNK         0.0771 
    128 H128       35.0292   31.1951    9.0733 H         1 UNK         0.0771 
    129 H129       33.8133   32.3715    9.5761 H         1 UNK         0.0771 
    130 H130       33.8618   29.0198    6.7998 H         1 UNK         0.2980 
    131 H131       34.2161   26.5941    8.3136 H         1 UNK         0.0545 
    132 H132       30.3756   26.5362    7.0676 H         1 UNK         0.3459 
    133 H133       31.3169   28.0046    6.9406 H         1 UNK         0.3459 
    134 H134       35.6597   27.1289    6.3743 H         1 UNK         0.0616 
    135 H135       34.9211   25.5658    6.2721 H         1 UNK         0.0616 
    136 H136       34.7671   24.8595    3.9613 H         1 UNK         0.0634 
    137 H137       33.1112   24.8759    4.5268 H         1 UNK         0.0634 
@<TRIPOS>BOND
     1    1    2 1    
     2    1   72 1    
     3    1   73 1    
     4    1   74 1    
     5    2    3 2    
     6    2    4 am   BACKBONE|DICT|INTERRES
     7    4    5 1    
     8    4   75 1    
     9    5    6 1    
    10    5   35 1    
    11    5   76 1    
    12    6    7 1    
    13    6   77 1    
    14    6   78 1    
    15    7    8 1    
    16    8    9 1    
    17    8   79 1    
    18    8   80 1    
    19    9   10 ar   
    20    9   14 ar   
    21   10   11 ar   
    22   10   81 1    
    23   11   12 ar   
    24   11   71 1    
    25   12   13 ar   
    26   12   82 1    
    27   13   14 ar   
    28   13   15 1    
    29   14   83 1    
    30   15   16 1    
    31   15   84 1    
    32   15   85 1    
    33   16   17 1    
    34   17   18 1    
    35   17   86 1    
    36   17   87 1    
    37   18   19 1    
    38   18   37 1    
    39   18   88 1    
    40   19   20 am   BACKBONE|DICT|INTERRES
    41   19   89 1    
    42   20   21 2    
    43   20   22 1    
    44   22   23 1    
    45   22   24 1    
    46   22   90 1    
    47   23   91 1    
    48   23   92 1    
    49   23   93 1    
    50   24   25 am   BACKBONE|DICT|INTERRES
    51   24   94 1    
    52   25   26 2    
    53   25   27 1    
    54   27   28 1    
    55   27   29 1    
    56   27   95 1    
    57   28   96 1    
    58   28   97 1    
    59   28   98 1    
    60   29   30 am   BACKBONE|DICT|INTERRES
    61   29   99 1    
    62   30   31 2    
    63   30   32 1    
    64   32   33 1    
    65   32   34 1    
    66   32  100 1    
    67   33  101 1    
    68   33  102 1    
    69   33  103 1    
    70   34   35 am   BACKBONE|DICT|INTERRES
    71   34  104 1    
    72   35   36 2    
    73   37   38 2    
    74   37   39 am   BACKBONE|DICT|INTERRES
    75   39   40 1    
    76   39  105 1    
    77   40   41 1    
    78   40   42 1    
    79   40  106 1    
    80   41  107 1    
    81   41  108 1    
    82   41  109 1    
    83   42   43 2    
    84   42   44 am   BACKBONE|DICT|INTERRES
    85   44   45 1    
    86   44  110 1    
    87   45   46 1    
    88   45   47 1    
    89   45  111 1    
    90   46  112 1    
    91   46  113 1    
    92   46  114 1    
    93   47   48 2    
    94   47   49 am   BACKBONE|DICT|INTERRES
    95   49   50 1    
    96   49  115 1    
    97   50   51 1    
    98   50   52 1    
    99   50  116 1    
   100   51  117 1    
   101   51  118 1    
   102   51  119 1    
   103   52   53 2    
   104   52   54 am   BACKBONE|DICT|INTERRES
   105   54   55 1    
   106   54  120 1    
   107   55   56 1    
   108   55   57 1    
   109   55  121 1    
   110   56  122 1    
   111   56  123 1    
   112   56  124 1    
   113   57   58 2    
   114   57   59 am   BACKBONE|DICT|INTERRES
   115   59   60 1    
   116   59  125 1    
   117   60   61 1    
   118   60   62 1    
   119   60  126 1    
   120   61  127 1    
   121   61  128 1    
   122   61  129 1    
   123   62   63 2    
   124   62   64 am   BACKBONE|DICT|INTERRES
   125   64   65 1    
   126   64  130 1    
   127   65   66 1    
   128   65   69 1    
   129   65  131 1    
   130   66   67 am   BACKBONE|DICT|INTERRES
   131   66   68 2    
   132   67  132 1    
   133   67  133 1    
   134   69   70 1    
   135   69  134 1    
   136   69  135 1    
   137   70   71 1    
   138   71  136 1    
   139   71  137 1    
@<TRIPOS>SUBSTRUCTURE
     1 UNK         1 GROUP             0       ****    0 ROOT    
