@<TRIPOS>MOLECULE
3R136
137   139    1
SMALL
USER_CHARGES


@<TRIPOS>ATOM
      1 CA         26.7894   17.4946    1.0354 C.3       0 UNK        -0.1979 
      2 C          26.7864   19.0026    0.8315 C.2       0 UNK         0.4864 
      3 O          25.7218   19.6224    0.8659 O.2       0 UNK        -0.5359 
      4 N          27.9669   19.5933    0.6089 N.am      1 UNK        -0.4318 
      5 CA         28.1739   21.0372    0.4648 C.3       1 UNK         0.0824 
      6 C6         29.5136   21.3732   -0.2425 C.3       12 UNK        -0.0944 
      7 S7         30.9709   20.4144    0.3162 S.3       12 UNK        -0.2672 
      8 C8         31.6780   21.4495    1.6482 C.3       12 UNK         0.0333 
      9 C9         32.0928   22.8703    1.2597 C.ar      12 UNK        -0.0807 
     10 C10        32.2584   23.8129    2.2791 C.ar      12 UNK        -0.0894 
     11 C11        32.6119   25.1330    1.9860 C.ar      12 UNK        -0.0804 
     12 C12        32.7803   25.5201    0.6546 C.ar      12 UNK        -0.0824 
     13 C13        32.6037   24.5949   -0.3783 C.ar      12 UNK        -0.0762 
     14 C14        32.3035   23.2654   -0.0681 C.ar      12 UNK        -0.0782 
     15 C15        32.6585   25.0504   -1.8314 C.3       12 UNK         0.0230 
     16 S16        31.0842   24.7489   -2.7141 S.3       12 UNK        -0.2608 
     17 C17        29.8451   25.4833   -1.5858 C.3       12 UNK        -0.0989 
     18 CA         29.1905   26.7946   -2.0808 C.3       5 UNK         0.0716 
     19 N          28.0110   27.0892   -1.2634 N.am      5 UNK        -0.4135 
     20 C          27.0259   27.9369   -1.5894 C.2       4 UNK         0.5031 
     21 O          26.9690   28.5327   -2.6657 O.2       4 UNK        -0.5229 
     22 CA         25.9111   28.1669   -0.5454 C.3       4 UNK         0.0329 
     23 CB         24.6542   27.3651   -0.9205 C.3       4 UNK        -0.2001 
     24 N          26.2894   27.8402    0.8354 N.am      4 UNK        -0.4303 
     25 C          27.2722   28.4368    1.5249 C.2       3 UNK         0.5044 
     26 O          27.9419   29.3653    1.0789 O.2       3 UNK        -0.5152 
     27 CA         27.6066   27.8838    2.9227 C.3       3 UNK         0.0319 
     28 CB         26.8253   28.6572    3.9963 C.3       3 UNK        -0.2001 
     29 N          27.3982   26.4415    3.1235 N.am      3 UNK        -0.4354 
     30 C          27.7915   25.4410    2.3202 C.2       2 UNK         0.4964 
     31 O          28.3147   25.6082    1.2154 O.2       2 UNK        -0.5047 
     32 CA         27.5206   24.0126    2.8199 C.3       2 UNK         0.0288 
     33 CB         26.0959   23.8416    3.3905 C.3       2 UNK        -0.2113 
     34 N          27.7234   23.0861    1.7098 N.am      2 UNK        -0.4145 
     35 C          28.0205   21.7860    1.8063 C.2       1 UNK         0.5006 
     36 O          28.1805   21.1946    2.8783 O.2       1 UNK        -0.5103 
     37 C          30.1986   27.9687   -2.1090 C.2       5 UNK         0.5055 
     38 O          30.9524   28.0884   -3.0768 O.2       5 UNK        -0.5220 
     39 N          30.2039   28.8147   -1.0702 N.am      6 UNK        -0.4450 
     40 CA         31.1079   29.9526   -0.9307 C.3       6 UNK         0.0367 
     41 CB         32.3816   29.5226   -0.1710 C.3       6 UNK        -0.1929 
     42 C          30.3301   31.0937   -0.2681 C.2       6 UNK         0.5070 
     43 O          29.5850   31.7928   -0.9562 O.2       6 UNK        -0.5237 
     44 N          30.4913   31.2464    1.0482 N.am      7 UNK        -0.4739 
     45 CA         29.7283   32.1494    1.8992 C.3       7 UNK         0.0276 
     46 CB         30.3464   33.5590    1.8602 C.3       7 UNK        -0.1927 
     47 C          29.7622   31.5824    3.3189 C.2       7 UNK         0.5013 
     48 O          30.7247   30.8949    3.6722 O.2       7 UNK        -0.5193 
     49 N          28.7637   31.9341    4.1392 N.am      8 UNK        -0.4253 
     50 CA         28.6955   31.5565    5.5575 C.3       8 UNK         0.0242 
     51 CB         27.3531   32.0112    6.1514 C.3       8 UNK        -0.2000 
     52 C          29.8710   32.1019    6.3886 C.2       8 UNK         0.4948 
     53 O          30.3231   31.4278    7.3126 O.2       8 UNK        -0.5275 
     54 N          30.3813   33.2818    6.0086 N.am      9 UNK        -0.4246 
     55 CA         31.5861   33.8920    6.5749 C.3       9 UNK         0.0261 
     56 CB         31.6812   35.3511    6.0992 C.3       9 UNK        -0.1959 
     57 C          32.8831   33.1316    6.2348 C.2       9 UNK         0.5033 
     58 O          33.8545   33.2542    6.9823 O.2       9 UNK        -0.5390 
     59 N          32.8868   32.3753    5.1272 N.am      10 UNK        -0.4215 
     60 CA         34.0063   31.5347    4.7058 C.3       10 UNK         0.0240 
     61 CB         34.0652   31.4686    3.1688 C.3       10 UNK        -0.1982 
     62 C          33.8918   30.1306    5.3146 C.2       10 UNK         0.4970 
     63 O          34.8746   29.6343    5.8667 O.2       10 UNK        -0.4916 
     64 N          32.7060   29.5173    5.1995 N.am      11 UNK        -0.4279 
     65 CA         32.4293   28.1634    5.7005 C.3       11 UNK         0.1003 
     66 C          32.2888   28.0567    7.2444 C.2       11 UNK         0.5709 
     67 N          31.9161   29.1098    7.9598 N.am      11 UNK        -0.7358 
     68 O          32.5375   26.9930    7.8070 O.2       11 UNK        -0.4999 
     69 C69        31.2166   27.5130    4.9848 C.3       12 UNK        -0.0954 
     70 S70        31.4424   27.3396    3.1829 S.3       12 UNK        -0.2268 
     71 C71        32.8077   26.1387    3.1088 C.3       12 UNK         0.0203 
     72 H72        27.7933   17.0760    0.9644 H         1 UNK         0.0888 
     73 H73        26.1671   17.0123    0.2821 H         1 UNK         0.0888 
     74 H74        26.3885   17.2486    2.0183 H         1 UNK         0.0888 
     75 H75        28.8145   19.0433    0.6173 H         1 UNK         0.3017 
     76 H76        27.3732   21.4062   -0.1808 H         1 UNK         0.0873 
     77 H77        29.7217   22.4429   -0.1991 H         1 UNK         0.0745 
     78 H78        29.4014   21.1588   -1.3064 H         1 UNK         0.0745 
     79 H79        30.9553   21.4920    2.4640 H         1 UNK         0.0705 
     80 H80        32.5544   20.9361    2.0454 H         1 UNK         0.0705 
     81 H81        32.1084   23.5171    3.3087 H         1 UNK         0.1334 
     82 H82        33.0179   26.5498    0.4265 H         1 UNK         0.1417 
     83 H83        32.1786   22.5592   -0.8766 H         1 UNK         0.1562 
     84 H84        33.4628   24.5221   -2.3448 H         1 UNK         0.0748 
     85 H85        32.8953   26.1137   -1.8965 H         1 UNK         0.0748 
     86 H86        30.2587   25.6324   -0.5888 H         1 UNK         0.0940 
     87 H87        29.0731   24.7229   -1.4578 H         1 UNK         0.0940 
     88 H88        28.8480   26.6375   -3.1059 H         1 UNK         0.0703 
     89 H89        27.9846   26.6372   -0.3523 H         1 UNK         0.3081 
     90 H90        25.6611   29.2295   -0.5736 H         1 UNK         0.0719 
     91 H91        24.8357   26.2901   -0.8846 H         1 UNK         0.0809 
     92 H92        23.8241   27.5897   -0.2505 H         1 UNK         0.0809 
     93 H93        24.3243   27.6060   -1.9323 H         1 UNK         0.0809 
     94 H94        25.7968   27.0769    1.2754 H         1 UNK         0.2990 
     95 H95        28.6675   28.0762    3.0824 H         1 UNK         0.0690 
     96 H96        27.1887   28.4251    4.9975 H         1 UNK         0.0788 
     97 H97        25.7593   28.4293    3.9621 H         1 UNK         0.0788 
     98 H98        26.9298   29.7335    3.8570 H         1 UNK         0.0788 
     99 H99        26.9569   26.1869    3.9950 H         1 UNK         0.2993 
    100 H100       28.2553   23.7969    3.5988 H         1 UNK         0.0949 
    101 H101       25.9425   24.4481    4.2834 H         1 UNK         0.0767 
    102 H102       25.3349   24.1246    2.6620 H         1 UNK         0.0767 
    103 H103       25.9063   22.8078    3.6802 H         1 UNK         0.0767 
    104 H104       27.7026   23.5315    0.8014 H         1 UNK         0.3013 
    105 H105       29.4935   28.7287   -0.3507 H         1 UNK         0.3121 
    106 H106       31.4054   30.3179   -1.9161 H         1 UNK         0.0774 
    107 H107       32.9608   28.8101   -0.7584 H         1 UNK         0.0815 
    108 H108       32.1529   29.0504    0.7845 H         1 UNK         0.0815 
    109 H109       33.0308   30.3771    0.0249 H         1 UNK         0.0815 
    110 H110       31.0747   30.5979    1.5624 H         1 UNK         0.2987 
    111 H111       28.6913   32.1798    1.5565 H         1 UNK         0.0949 
    112 H112       31.3832   33.5540    2.1996 H         1 UNK         0.0806 
    113 H113       30.3293   33.9710    0.8511 H         1 UNK         0.0806 
    114 H114       29.7944   34.2504    2.4979 H         1 UNK         0.0806 
    115 H115       28.0140   32.5102    3.7832 H         1 UNK         0.3010 
    116 H116       28.7434   30.4667    5.6119 H         1 UNK         0.0829 
    117 H117       26.5113   31.5574    5.6281 H         1 UNK         0.0813 
    118 H118       27.2735   31.7206    7.2000 H         1 UNK         0.0813 
    119 H119       27.2347   33.0944    6.1039 H         1 UNK         0.0813 
    120 H120       29.9335   33.7746    5.2500 H         1 UNK         0.3038 
    121 H121       31.4838   33.8920    7.6624 H         1 UNK         0.0769 
    122 H122       31.7699   35.4183    5.0140 H         1 UNK         0.0811 
    123 H123       32.5545   35.8447    6.5280 H         1 UNK         0.0811 
    124 H124       30.8061   35.9263    6.4024 H         1 UNK         0.0811 
    125 H125       32.0265   32.2683    4.6049 H         1 UNK         0.3204 
    126 H126       34.9433   31.9765    5.0524 H         1 UNK         0.0748 
    127 H127       34.1676   32.4629    2.7339 H         1 UNK         0.0771 
    128 H128       34.9234   30.8814    2.8395 H         1 UNK         0.0771 
    129 H129       33.1761   31.0072    2.7399 H         1 UNK         0.0771 
    130 H130       31.9493   29.9762    4.6985 H         1 UNK         0.2980 
    131 H131       33.3045   27.5583    5.4587 H         1 UNK         0.0545 
    132 H132       31.8422   29.0151    8.9596 H         1 UNK         0.3459 
    133 H133       31.6075   29.9703    7.5199 H         1 UNK         0.3459 
    134 H134       31.0095   26.5206    5.3900 H         1 UNK         0.0616 
    135 H135       30.3162   28.1057    5.1567 H         1 UNK         0.0616 
    136 H136       32.8975   25.6164    4.0624 H         1 UNK         0.0634 
    137 H137       33.7456   26.6766    2.9642 H         1 UNK         0.0634 
@<TRIPOS>BOND
     1    1    2 1    
     2    1   72 1    
     3    1   73 1    
     4    1   74 1    
     5    2    3 2    
     6    2    4 am   BACKBONE|DICT|INTERRES
     7    4    5 1    
     8    4   75 1    
     9    5    6 1    
    10    5   35 1    
    11    5   76 1    
    12    6    7 1    
    13    6   77 1    
    14    6   78 1    
    15    7    8 1    
    16    8    9 1    
    17    8   79 1    
    18    8   80 1    
    19    9   10 ar   
    20    9   14 ar   
    21   10   11 ar   
    22   10   81 1    
    23   11   12 ar   
    24   11   71 1    
    25   12   13 ar   
    26   12   82 1    
    27   13   14 ar   
    28   13   15 1    
    29   14   83 1    
    30   15   16 1    
    31   15   84 1    
    32   15   85 1    
    33   16   17 1    
    34   17   18 1    
    35   17   86 1    
    36   17   87 1    
    37   18   19 1    
    38   18   37 1    
    39   18   88 1    
    40   19   20 am   BACKBONE|DICT|INTERRES
    41   19   89 1    
    42   20   21 2    
    43   20   22 1    
    44   22   23 1    
    45   22   24 1    
    46   22   90 1    
    47   23   91 1    
    48   23   92 1    
    49   23   93 1    
    50   24   25 am   BACKBONE|DICT|INTERRES
    51   24   94 1    
    52   25   26 2    
    53   25   27 1    
    54   27   28 1    
    55   27   29 1    
    56   27   95 1    
    57   28   96 1    
    58   28   97 1    
    59   28   98 1    
    60   29   30 am   BACKBONE|DICT|INTERRES
    61   29   99 1    
    62   30   31 2    
    63   30   32 1    
    64   32   33 1    
    65   32   34 1    
    66   32  100 1    
    67   33  101 1    
    68   33  102 1    
    69   33  103 1    
    70   34   35 am   BACKBONE|DICT|INTERRES
    71   34  104 1    
    72   35   36 2    
    73   37   38 2    
    74   37   39 am   BACKBONE|DICT|INTERRES
    75   39   40 1    
    76   39  105 1    
    77   40   41 1    
    78   40   42 1    
    79   40  106 1    
    80   41  107 1    
    81   41  108 1    
    82   41  109 1    
    83   42   43 2    
    84   42   44 am   BACKBONE|DICT|INTERRES
    85   44   45 1    
    86   44  110 1    
    87   45   46 1    
    88   45   47 1    
    89   45  111 1    
    90   46  112 1    
    91   46  113 1    
    92   46  114 1    
    93   47   48 2    
    94   47   49 am   BACKBONE|DICT|INTERRES
    95   49   50 1    
    96   49  115 1    
    97   50   51 1    
    98   50   52 1    
    99   50  116 1    
   100   51  117 1    
   101   51  118 1    
   102   51  119 1    
   103   52   53 2    
   104   52   54 am   BACKBONE|DICT|INTERRES
   105   54   55 1    
   106   54  120 1    
   107   55   56 1    
   108   55   57 1    
   109   55  121 1    
   110   56  122 1    
   111   56  123 1    
   112   56  124 1    
   113   57   58 2    
   114   57   59 am   BACKBONE|DICT|INTERRES
   115   59   60 1    
   116   59  125 1    
   117   60   61 1    
   118   60   62 1    
   119   60  126 1    
   120   61  127 1    
   121   61  128 1    
   122   61  129 1    
   123   62   63 2    
   124   62   64 am   BACKBONE|DICT|INTERRES
   125   64   65 1    
   126   64  130 1    
   127   65   66 1    
   128   65   69 1    
   129   65  131 1    
   130   66   67 am   BACKBONE|DICT|INTERRES
   131   66   68 2    
   132   67  132 1    
   133   67  133 1    
   134   69   70 1    
   135   69  134 1    
   136   69  135 1    
   137   70   71 1    
   138   71  136 1    
   139   71  137 1    
@<TRIPOS>SUBSTRUCTURE
     1 UNK         1 GROUP             0       ****    0 ROOT    
