@<TRIPOS>MOLECULE
3R136
137   139    1
SMALL
USER_CHARGES


@<TRIPOS>ATOM
      1 CA         28.6162   21.0266    5.6390 C.3       0 UNK        -0.1979 
      2 C          28.6440   21.9207    4.4081 C.2       0 UNK         0.4864 
      3 O          28.8166   21.4225    3.2945 O.2       0 UNK        -0.5359 
      4 N          28.4838   23.2360    4.6014 N.am      1 UNK        -0.4318 
      5 CA         28.4468   24.2459    3.5401 C.3       1 UNK         0.0824 
      6 C6         28.5404   25.6823    4.1125 C.3       12 UNK        -0.0944 
      7 S7         30.0595   25.9838    5.0829 S.3       12 UNK        -0.2672 
      8 C8         30.9945   27.0909    3.9850 C.3       12 UNK         0.0333 
      9 C9         31.8264   26.3323    2.9658 C.ar      12 UNK        -0.0807 
     10 C10        33.1657   26.0420    3.2420 C.ar      12 UNK        -0.0894 
     11 C11        33.9601   25.3976    2.2905 C.ar      12 UNK        -0.0804 
     12 C12        33.4000   25.0220    1.0669 C.ar      12 UNK        -0.0824 
     13 C13        32.0581   25.2930    0.7836 C.ar      12 UNK        -0.0762 
     14 C14        31.2755   25.9546    1.7367 C.ar      12 UNK        -0.0782 
     15 C15        31.4664   24.8531   -0.5483 C.3       12 UNK         0.0230 
     16 S16        31.1515   26.2635   -1.6557 S.3       12 UNK        -0.2608 
     17 C17        29.3392   26.3828   -1.5109 C.3       12 UNK        -0.0989 
     18 CA         28.7268   27.6519   -2.1646 C.3       5 UNK         0.0716 
     19 N          27.3314   27.3904   -2.5126 N.am      5 UNK        -0.4135 
     20 C          26.7327   27.6985   -3.6690 C.2       4 UNK         0.5031 
     21 O          27.3005   28.2741   -4.5991 O.2       4 UNK        -0.5229 
     22 CA         25.2632   27.2627   -3.8509 C.3       4 UNK         0.0329 
     23 CB         25.1457   26.2243   -4.9805 C.3       4 UNK        -0.2001 
     24 N          24.6665   26.6977   -2.6364 N.am      4 UNK        -0.4303 
     25 C          24.1257   27.4152   -1.6426 C.2       3 UNK         0.5044 
     26 O          24.0078   28.6404   -1.6690 O.2       3 UNK        -0.5152 
     27 CA         23.6438   26.6390   -0.4006 C.3       3 UNK         0.0319 
     28 CB         22.1352   26.3591   -0.4976 C.3       3 UNK        -0.2001 
     29 N          24.3533   25.3769   -0.1429 N.am      3 UNK        -0.4354 
     30 C          25.6645   25.2723    0.1139 C.2       2 UNK         0.4964 
     31 O          26.4476   26.2209    0.0587 O.2       2 UNK        -0.5047 
     32 CA         26.2030   23.8663    0.4220 C.3       2 UNK         0.0288 
     33 CB         26.6818   23.1807   -0.8684 C.3       2 UNK        -0.2113 
     34 N          27.3151   23.9290    1.3741 N.am      2 UNK        -0.4145 
     35 C          27.1634   24.0905    2.6957 C.2       1 UNK         0.5006 
     36 O          26.0651   24.1263    3.2580 O.2       1 UNK        -0.5103 
     37 C          28.8103   28.9054   -1.2641 C.2       5 UNK         0.5055 
     38 O          27.9127   29.7532   -1.2828 O.2       5 UNK        -0.5220 
     39 N          29.8931   28.9969   -0.4821 N.am      6 UNK        -0.4450 
     40 CA         30.0595   29.9272    0.6360 C.3       6 UNK         0.0367 
     41 CB         31.5396   29.9092    1.0630 C.3       6 UNK        -0.1929 
     42 C          29.1384   29.5593    1.8178 C.2       6 UNK         0.5070 
     43 O          28.4737   28.5221    1.7886 O.2       6 UNK        -0.5237 
     44 N          29.1547   30.3865    2.8668 N.am      7 UNK        -0.4739 
     45 CA         28.4311   30.1628    4.1198 C.3       7 UNK         0.0276 
     46 CB         27.2555   31.1540    4.1917 C.3       7 UNK        -0.1927 
     47 C          29.3792   30.3488    5.3132 C.2       7 UNK         0.5013 
     48 O          30.5117   30.8047    5.1338 O.2       7 UNK        -0.5193 
     49 N          28.8904   29.9954    6.5120 N.am      8 UNK        -0.4253 
     50 CA         29.4850   30.2613    7.8329 C.3       8 UNK         0.0242 
     51 CB         29.3326   31.7594    8.1743 C.3       8 UNK        -0.2000 
     52 C          30.9381   29.7707    8.0098 C.2       8 UNK         0.4948 
     53 O          31.7129   30.4075    8.7257 O.2       8 UNK        -0.5275 
     54 N          31.2853   28.6619    7.3378 N.am      9 UNK        -0.4246 
     55 CA         32.6210   28.0510    7.2657 C.3       9 UNK         0.0261 
     56 CB         33.0553   27.5157    8.6476 C.3       9 UNK        -0.1959 
     57 C          33.6998   28.9510    6.6179 C.2       9 UNK         0.5033 
     58 O          34.8874   28.6911    6.8188 O.2       9 UNK        -0.5390 
     59 N          33.2951   29.9812    5.8542 N.am      10 UNK        -0.4215 
     60 CA         34.2036   30.9592    5.2443 C.3       10 UNK         0.0240 
     61 CB         33.4017   32.1664    4.7320 C.3       10 UNK        -0.1982 
     62 C          35.0753   30.3772    4.1196 C.2       10 UNK         0.4970 
     63 O          36.2405   30.7597    4.0087 O.2       10 UNK        -0.4916 
     64 N          34.4983   29.4716    3.3159 N.am      11 UNK        -0.4279 
     65 CA         35.1627   28.7663    2.2044 C.3       11 UNK         0.1003 
     66 C          35.5994   29.6758    1.0113 C.2       11 UNK         0.5709 
     67 N          35.0675   30.8857    0.8786 N.am      11 UNK        -0.7358 
     68 O          36.4072   29.2796    0.1750 O.2       11 UNK        -0.4999 
     69 C69        36.2840   27.8161    2.7255 C.3       12 UNK        -0.0954 
     70 S70        36.5069   26.3116    1.7166 S.3       12 UNK        -0.2268 
     71 C71        35.4287   25.1179    2.5707 C.3       12 UNK         0.0203 
     72 H72        29.5555   20.4813    5.7279 H         1 UNK         0.0888 
     73 H73        28.4685   21.5984    6.5551 H         1 UNK         0.0888 
     74 H74        27.8068   20.3015    5.5576 H         1 UNK         0.0888 
     75 H75        28.3439   23.5889    5.5370 H         1 UNK         0.3017 
     76 H76        29.3128   24.0782    2.8963 H         1 UNK         0.0873 
     77 H77        28.4724   26.4123    3.3058 H         1 UNK         0.0745 
     78 H78        27.6890   25.8877    4.7646 H         1 UNK         0.0745 
     79 H79        31.6429   27.7300    4.5804 H         1 UNK         0.0705 
     80 H80        30.3130   27.7710    3.4868 H         1 UNK         0.0705 
     81 H81        33.5977   26.3364    4.1887 H         1 UNK         0.1334 
     82 H82        34.0169   24.5227    0.3319 H         1 UNK         0.1417 
     83 H83        30.2414   26.1855    1.5231 H         1 UNK         0.1562 
     84 H84        30.5511   24.2857   -0.3746 H         1 UNK         0.0748 
     85 H85        32.1458   24.1676   -1.0574 H         1 UNK         0.0748 
     86 H86        29.0351   26.2943   -0.4664 H         1 UNK         0.0940 
     87 H87        28.9456   25.4941   -2.0064 H         1 UNK         0.0940 
     88 H88        29.2872   27.8769   -3.0744 H         1 UNK         0.0703 
     89 H89        26.7749   27.0004   -1.7592 H         1 UNK         0.3081 
     90 H90        24.6979   28.1493   -4.1462 H         1 UNK         0.0719 
     91 H91        25.7048   25.3155   -4.7541 H         1 UNK         0.0809 
     92 H92        24.1066   25.9455   -5.1571 H         1 UNK         0.0809 
     93 H93        25.5352   26.6204   -5.9194 H         1 UNK         0.0809 
     94 H94        24.7099   25.6944   -2.5310 H         1 UNK         0.2990 
     95 H95        23.8134   27.2859    0.4629 H         1 UNK         0.0690 
     96 H96        21.7537   25.9110    0.4202 H         1 UNK         0.0788 
     97 H97        21.9014   25.6866   -1.3240 H         1 UNK         0.0788 
     98 H98        21.5761   27.2818   -0.6605 H         1 UNK         0.0788 
     99 H99        23.7833   24.5434   -0.1052 H         1 UNK         0.2993 
    100 H100       25.4001   23.2670    0.8577 H         1 UNK         0.0949 
    101 H101       27.4870   23.7355   -1.3498 H         1 UNK         0.0767 
    102 H102       27.0444   22.1721   -0.6683 H         1 UNK         0.0767 
    103 H103       25.8693   23.0925   -1.5909 H         1 UNK         0.0767 
    104 H104       28.2443   23.9150    0.9828 H         1 UNK         0.3013 
    105 H105       30.5676   28.2455   -0.5455 H         1 UNK         0.3121 
    106 H106       29.7955   30.9313    0.2978 H         1 UNK         0.0774 
    107 H107       32.1928   30.1691    0.2296 H         1 UNK         0.0815 
    108 H108       31.7356   30.6294    1.8577 H         1 UNK         0.0815 
    109 H109       31.8417   28.9272    1.4277 H         1 UNK         0.0815 
    110 H110       29.7916   31.1721    2.8761 H         1 UNK         0.2987 
    111 H111       28.0439   29.1421    4.1652 H         1 UNK         0.0949 
    112 H112       26.6600   31.0047    5.0930 H         1 UNK         0.0806 
    113 H113       27.6008   32.1888    4.1957 H         1 UNK         0.0806 
    114 H114       26.5845   31.0301    3.3413 H         1 UNK         0.0806 
    115 H115       27.9653   29.5881    6.5384 H         1 UNK         0.3010 
    116 H116       28.8925   29.6971    8.5549 H         1 UNK         0.0829 
    117 H117       28.2968   32.0856    8.0803 H         1 UNK         0.0813 
    118 H118       29.6411   31.9652    9.2002 H         1 UNK         0.0813 
    119 H119       29.9414   32.3837    7.5188 H         1 UNK         0.0813 
    120 H120       30.5675   28.2086    6.7890 H         1 UNK         0.3038 
    121 H121       32.5266   27.1824    6.6142 H         1 UNK         0.0769 
    122 H122       33.9634   26.9167    8.5685 H         1 UNK         0.0811 
    123 H123       32.2877   26.8776    9.0854 H         1 UNK         0.0811 
    124 H124       33.2622   28.3234    9.3500 H         1 UNK         0.0811 
    125 H125       32.3002   30.1601    5.7436 H         1 UNK         0.3204 
    126 H126       34.8768   31.3144    6.0277 H         1 UNK         0.0748 
    127 H127       34.0644   32.9337    4.3292 H         1 UNK         0.0771 
    128 H128       32.7069   31.8862    3.9398 H         1 UNK         0.0771 
    129 H129       32.8236   32.6265    5.5339 H         1 UNK         0.0771 
    130 H130       33.5319   29.2356    3.4765 H         1 UNK         0.2980 
    131 H131       34.3749   28.1466    1.7777 H         1 UNK         0.0545 
    132 H132       34.4126   31.2368    1.5567 H         1 UNK         0.3459 
    133 H133       35.3493   31.4621    0.1017 H         1 UNK         0.3459 
    134 H134       36.0680   27.4972    3.7465 H         1 UNK         0.0616 
    135 H135       37.2381   28.3426    2.7845 H         1 UNK         0.0616 
    136 H136       35.6344   25.1315    3.6421 H         1 UNK         0.0634 
    137 H137       35.6768   24.1130    2.2260 H         1 UNK         0.0634 
@<TRIPOS>BOND
     1    1    2 1    
     2    1   72 1    
     3    1   73 1    
     4    1   74 1    
     5    2    3 2    
     6    2    4 am   BACKBONE|DICT|INTERRES
     7    4    5 1    
     8    4   75 1    
     9    5    6 1    
    10    5   35 1    
    11    5   76 1    
    12    6    7 1    
    13    6   77 1    
    14    6   78 1    
    15    7    8 1    
    16    8    9 1    
    17    8   79 1    
    18    8   80 1    
    19    9   10 ar   
    20    9   14 ar   
    21   10   11 ar   
    22   10   81 1    
    23   11   12 ar   
    24   11   71 1    
    25   12   13 ar   
    26   12   82 1    
    27   13   14 ar   
    28   13   15 1    
    29   14   83 1    
    30   15   16 1    
    31   15   84 1    
    32   15   85 1    
    33   16   17 1    
    34   17   18 1    
    35   17   86 1    
    36   17   87 1    
    37   18   19 1    
    38   18   37 1    
    39   18   88 1    
    40   19   20 am   BACKBONE|DICT|INTERRES
    41   19   89 1    
    42   20   21 2    
    43   20   22 1    
    44   22   23 1    
    45   22   24 1    
    46   22   90 1    
    47   23   91 1    
    48   23   92 1    
    49   23   93 1    
    50   24   25 am   BACKBONE|DICT|INTERRES
    51   24   94 1    
    52   25   26 2    
    53   25   27 1    
    54   27   28 1    
    55   27   29 1    
    56   27   95 1    
    57   28   96 1    
    58   28   97 1    
    59   28   98 1    
    60   29   30 am   BACKBONE|DICT|INTERRES
    61   29   99 1    
    62   30   31 2    
    63   30   32 1    
    64   32   33 1    
    65   32   34 1    
    66   32  100 1    
    67   33  101 1    
    68   33  102 1    
    69   33  103 1    
    70   34   35 am   BACKBONE|DICT|INTERRES
    71   34  104 1    
    72   35   36 2    
    73   37   38 2    
    74   37   39 am   BACKBONE|DICT|INTERRES
    75   39   40 1    
    76   39  105 1    
    77   40   41 1    
    78   40   42 1    
    79   40  106 1    
    80   41  107 1    
    81   41  108 1    
    82   41  109 1    
    83   42   43 2    
    84   42   44 am   BACKBONE|DICT|INTERRES
    85   44   45 1    
    86   44  110 1    
    87   45   46 1    
    88   45   47 1    
    89   45  111 1    
    90   46  112 1    
    91   46  113 1    
    92   46  114 1    
    93   47   48 2    
    94   47   49 am   BACKBONE|DICT|INTERRES
    95   49   50 1    
    96   49  115 1    
    97   50   51 1    
    98   50   52 1    
    99   50  116 1    
   100   51  117 1    
   101   51  118 1    
   102   51  119 1    
   103   52   53 2    
   104   52   54 am   BACKBONE|DICT|INTERRES
   105   54   55 1    
   106   54  120 1    
   107   55   56 1    
   108   55   57 1    
   109   55  121 1    
   110   56  122 1    
   111   56  123 1    
   112   56  124 1    
   113   57   58 2    
   114   57   59 am   BACKBONE|DICT|INTERRES
   115   59   60 1    
   116   59  125 1    
   117   60   61 1    
   118   60   62 1    
   119   60  126 1    
   120   61  127 1    
   121   61  128 1    
   122   61  129 1    
   123   62   63 2    
   124   62   64 am   BACKBONE|DICT|INTERRES
   125   64   65 1    
   126   64  130 1    
   127   65   66 1    
   128   65   69 1    
   129   65  131 1    
   130   66   67 am   BACKBONE|DICT|INTERRES
   131   66   68 2    
   132   67  132 1    
   133   67  133 1    
   134   69   70 1    
   135   69  134 1    
   136   69  135 1    
   137   70   71 1    
   138   71  136 1    
   139   71  137 1    
@<TRIPOS>SUBSTRUCTURE
     1 UNK         1 GROUP             0       ****    0 ROOT    
