@<TRIPOS>MOLECULE
3R136
137   139    1
SMALL
USER_CHARGES


@<TRIPOS>ATOM
      1 CA         27.5182   18.4832    1.4135 C.3       0 UNK        -0.1979 
      2 C          27.9916   19.7165    0.6586 C.2       0 UNK         0.4864 
      3 O          27.7402   19.8318   -0.5416 O.2       0 UNK        -0.5359 
      4 N          28.6769   20.6355    1.3530 N.am      1 UNK        -0.4318 
      5 CA         29.2222   21.8821    0.7960 C.3       1 UNK         0.0824 
      6 C6         30.2417   22.5462    1.7532 C.3       12 UNK        -0.0944 
      7 S7         31.5969   21.4240    2.2571 S.3       12 UNK        -0.2672 
      8 C8         32.8982   21.7571    1.0210 C.3       12 UNK         0.0333 
      9 C9         33.2944   23.2256    0.9844 C.ar      12 UNK        -0.0807 
     10 C10        33.8823   23.8277    2.1005 C.ar      12 UNK        -0.0894 
     11 C11        34.1515   25.1993    2.1063 C.ar      12 UNK        -0.0804 
     12 C12        33.8560   25.9644    0.9745 C.ar      12 UNK        -0.0824 
     13 C13        33.2624   25.3722   -0.1455 C.ar      12 UNK        -0.0762 
     14 C14        33.0079   23.9982   -0.1440 C.ar      12 UNK        -0.0782 
     15 C15        32.8034   26.2322   -1.3166 C.3       12 UNK         0.0230 
     16 S16        30.9922   26.1494   -1.5590 S.3       12 UNK        -0.2608 
     17 C17        30.3566   26.5646    0.1023 C.3       12 UNK        -0.0989 
     18 CA         29.5976   27.9090    0.1169 C.3       5 UNK         0.0716 
     19 N          28.2527   27.7978   -0.4365 N.am      5 UNK        -0.4135 
     20 C          27.6367   28.7691   -1.1223 C.2       4 UNK         0.5031 
     21 O          28.1868   29.8014   -1.5072 O.2       4 UNK        -0.5229 
     22 CA         26.1336   28.5752   -1.3965 C.3       4 UNK         0.0329 
     23 CB         25.9193   27.8498   -2.7346 C.3       4 UNK        -0.2001 
     24 N          25.4332   27.8484   -0.3326 N.am      4 UNK        -0.4303 
     25 C          25.3839   28.2192    0.9561 C.2       3 UNK         0.5044 
     26 O          25.8888   29.2512    1.3949 O.2       3 UNK        -0.5152 
     27 CA         24.7063   27.2478    1.9353 C.3       3 UNK         0.0319 
     28 CB         23.2256   27.6167    2.1156 C.3       3 UNK        -0.2001 
     29 N          24.8157   25.8353    1.5520 N.am      3 UNK        -0.4354 
     30 C          25.9581   25.1527    1.3813 C.2       2 UNK         0.4964 
     31 O          27.0800   25.6535    1.5072 O.2       2 UNK        -0.5047 
     32 CA         25.7785   23.6734    0.9927 C.3       2 UNK         0.0288 
     33 CB         25.1758   23.5328   -0.4223 C.3       2 UNK        -0.2113 
     34 N          26.9945   22.8614    1.1353 N.am      2 UNK        -0.4145 
     35 C          28.1196   22.8911    0.4012 C.2       1 UNK         0.5006 
     36 O          28.3089   23.6422   -0.5564 O.2       1 UNK        -0.5103 
     37 C          29.5181   28.4651    1.5462 C.2       5 UNK         0.5055 
     38 O          30.1474   29.4840    1.8210 O.2       5 UNK        -0.5220 
     39 N          28.7762   27.7894    2.4364 N.am      6 UNK        -0.4450 
     40 CA         28.8212   28.0070    3.8884 C.3       6 UNK         0.0367 
     41 CB         27.9879   26.9256    4.5932 C.3       6 UNK        -0.1929 
     42 C          28.4206   29.4125    4.3784 C.2       6 UNK         0.5070 
     43 O          28.8513   29.8018    5.4644 O.2       6 UNK        -0.5237 
     44 N          27.6217   30.1517    3.5973 N.am      7 UNK        -0.4739 
     45 CA         27.2523   31.5396    3.8934 C.3       7 UNK         0.0276 
     46 CB         25.8156   31.7897    3.4040 C.3       7 UNK        -0.1927 
     47 C          28.2136   32.5711    3.2707 C.2       7 UNK         0.5013 
     48 O          28.1030   33.7512    3.6078 O.2       7 UNK        -0.5193 
     49 N          29.1022   32.1417    2.3631 N.am      8 UNK        -0.4253 
     50 CA         29.9844   33.0130    1.5803 C.3       8 UNK         0.0242 
     51 CB         29.7640   32.7307    0.0842 C.3       8 UNK        -0.2000 
     52 C          31.4647   32.8269    1.9438 C.2       8 UNK         0.4948 
     53 O          32.1865   33.8188    2.0596 O.2       8 UNK        -0.5275 
     54 N          31.8984   31.5701    2.0927 N.am      9 UNK        -0.4246 
     55 CA         33.2621   31.1790    2.4440 C.3       9 UNK         0.0261 
     56 CB         33.4678   29.7114    2.0276 C.3       9 UNK        -0.1959 
     57 C          33.5316   31.3527    3.9462 C.2       9 UNK         0.5033 
     58 O          32.5935   31.4611    4.7397 O.2       9 UNK        -0.5390 
     59 N          34.8180   31.3099    4.3206 N.am      10 UNK        -0.4215 
     60 CA         35.2973   31.3935    5.7072 C.3       10 UNK         0.0240 
     61 CB         36.8346   31.4209    5.7115 C.3       10 UNK        -0.1982 
     62 C          34.7765   30.2726    6.6289 C.2       10 UNK         0.4970 
     63 O          34.6854   30.4859    7.8385 O.2       10 UNK        -0.4916 
     64 N          34.4309   29.1175    6.0456 N.am      11 UNK        -0.4279 
     65 CA         33.7384   28.0117    6.7199 C.3       11 UNK         0.1003 
     66 C          32.2166   28.2516    6.9689 C.2       11 UNK         0.5709 
     67 N          31.6094   29.3076    6.4398 N.am      11 UNK        -0.7358 
     68 O          31.5781   27.4604    7.6590 O.2       11 UNK        -0.4999 
     69 C69        34.0162   26.6599    6.0090 C.3       12 UNK        -0.0954 
     70 S70        33.2995   26.5417    4.3324 S.3       12 UNK        -0.2268 
     71 C71        34.6829   25.8635    3.3658 C.3       12 UNK         0.0203 
     72 H72        27.8149   18.5074    2.4620 H         1 UNK         0.0888 
     73 H73        26.4318   18.4107    1.3701 H         1 UNK         0.0888 
     74 H74        27.9383   17.5841    0.9636 H         1 UNK         0.0888 
     75 H75        28.8866   20.4675    2.3270 H         1 UNK         0.3017 
     76 H76        29.7517   21.6225   -0.1235 H         1 UNK         0.0873 
     77 H77        30.6548   23.4498    1.3038 H         1 UNK         0.0745 
     78 H78        29.7409   22.8792    2.6644 H         1 UNK         0.0745 
     79 H79        33.7758   21.1545    1.2587 H         1 UNK         0.0705 
     80 H80        32.5498   21.4211    0.0431 H         1 UNK         0.0705 
     81 H81        34.0795   23.2360    2.9843 H         1 UNK         0.1334 
     82 H82        34.0349   27.0303    0.9909 H         1 UNK         0.1417 
     83 H83        32.5249   23.5466   -1.0003 H         1 UNK         0.1562 
     84 H84        33.3018   25.8977   -2.2273 H         1 UNK         0.0748 
     85 H85        33.0907   27.2748   -1.1707 H         1 UNK         0.0748 
     86 H86        29.7146   25.7501    0.4415 H         1 UNK         0.0940 
     87 H87        31.1838   26.5926    0.8114 H         1 UNK         0.0940 
     88 H88        30.1780   28.6269   -0.4676 H         1 UNK         0.0703 
     89 H89        27.7165   26.9900   -0.1459 H         1 UNK         0.3081 
     90 H90        25.6834   29.5677   -1.4655 H         1 UNK         0.0719 
     91 H91        26.3230   26.8365   -2.7146 H         1 UNK         0.0809 
     92 H92        24.8608   27.7862   -2.9879 H         1 UNK         0.0809 
     93 H93        26.4137   28.3812   -3.5492 H         1 UNK         0.0809 
     94 H94        24.9846   26.9824   -0.5926 H         1 UNK         0.2990 
     95 H95        25.2009   27.3661    2.8998 H         1 UNK         0.0690 
     96 H96        22.7542   27.0048    2.8849 H         1 UNK         0.0788 
     97 H97        22.6610   27.4903    1.1909 H         1 UNK         0.0788 
     98 H98        23.1183   28.6582    2.4233 H         1 UNK         0.0788 
     99 H99        23.9422   25.3434    1.4273 H         1 UNK         0.2993 
    100 H100       25.0660   23.2491    1.7022 H         1 UNK         0.0949 
    101 H101       25.0839   22.4852   -0.7102 H         1 UNK         0.0767 
    102 H102       24.1769   23.9669   -0.4745 H         1 UNK         0.0767 
    103 H103       25.7835   24.0333   -1.1770 H         1 UNK         0.0767 
    104 H104       26.9793   22.2084    1.9057 H         1 UNK         0.3013 
    105 H105       28.2412   26.9833    2.1197 H         1 UNK         0.3121 
    106 H106       29.8622   27.8659    4.1887 H         1 UNK         0.0774 
    107 H107       26.9311   27.0021    4.3424 H         1 UNK         0.0815 
    108 H108       28.0723   27.0147    5.6772 H         1 UNK         0.0815 
    109 H109       28.3257   25.9245    4.3245 H         1 UNK         0.0815 
    110 H110       27.2523   29.7551    2.7370 H         1 UNK         0.2987 
    111 H111       27.2654   31.6995    4.9739 H         1 UNK         0.0949 
    112 H112       25.7455   31.7390    2.3169 H         1 UNK         0.0806 
    113 H113       25.1199   31.0605    3.8197 H         1 UNK         0.0806 
    114 H114       25.4674   32.7786    3.7048 H         1 UNK         0.0806 
    115 H115       29.1865   31.1433    2.1986 H         1 UNK         0.3010 
    116 H116       29.7384   34.0621    1.7581 H         1 UNK         0.0829 
    117 H117       28.7340   32.9345   -0.2088 H         1 UNK         0.0813 
    118 H118       30.4075   33.3594   -0.5326 H         1 UNK         0.0813 
    119 H119       29.9804   31.6917   -0.1693 H         1 UNK         0.0813 
    120 H120       31.2270   30.8067    2.0099 H         1 UNK         0.3038 
    121 H121       33.9612   31.8079    1.8887 H         1 UNK         0.0769 
    122 H122       32.8043   29.0421    2.5775 H         1 UNK         0.0811 
    123 H123       34.4908   29.3819    2.2116 H         1 UNK         0.0811 
    124 H124       33.2707   29.5714    0.9645 H         1 UNK         0.0811 
    125 H125       35.5262   31.2143    3.6064 H         1 UNK         0.3204 
    126 H126       34.9374   32.3388    6.1189 H         1 UNK         0.0748 
    127 H127       37.2208   31.5114    6.7280 H         1 UNK         0.0771 
    128 H128       37.2564   30.5107    5.2830 H         1 UNK         0.0771 
    129 H129       37.2192   32.2698    5.1458 H         1 UNK         0.0771 
    130 H130       34.5266   29.0298    5.0460 H         1 UNK         0.2980 
    131 H131       34.1761   27.9261    7.7163 H         1 UNK         0.0545 
    132 H132       30.6108   29.4236    6.5525 H         1 UNK         0.3459 
    133 H133       32.1133   29.9832    5.8741 H         1 UNK         0.3459 
    134 H134       35.0933   26.4948    5.9561 H         1 UNK         0.0616 
    135 H135       33.6222   25.8331    6.6024 H         1 UNK         0.0616 
    136 H136       35.3820   26.6624    3.1146 H         1 UNK         0.0634 
    137 H137       35.2342   25.1376    3.9657 H         1 UNK         0.0634 
@<TRIPOS>BOND
     1    1    2 1    
     2    1   72 1    
     3    1   73 1    
     4    1   74 1    
     5    2    3 2    
     6    2    4 am   BACKBONE|DICT|INTERRES
     7    4    5 1    
     8    4   75 1    
     9    5    6 1    
    10    5   35 1    
    11    5   76 1    
    12    6    7 1    
    13    6   77 1    
    14    6   78 1    
    15    7    8 1    
    16    8    9 1    
    17    8   79 1    
    18    8   80 1    
    19    9   10 ar   
    20    9   14 ar   
    21   10   11 ar   
    22   10   81 1    
    23   11   12 ar   
    24   11   71 1    
    25   12   13 ar   
    26   12   82 1    
    27   13   14 ar   
    28   13   15 1    
    29   14   83 1    
    30   15   16 1    
    31   15   84 1    
    32   15   85 1    
    33   16   17 1    
    34   17   18 1    
    35   17   86 1    
    36   17   87 1    
    37   18   19 1    
    38   18   37 1    
    39   18   88 1    
    40   19   20 am   BACKBONE|DICT|INTERRES
    41   19   89 1    
    42   20   21 2    
    43   20   22 1    
    44   22   23 1    
    45   22   24 1    
    46   22   90 1    
    47   23   91 1    
    48   23   92 1    
    49   23   93 1    
    50   24   25 am   BACKBONE|DICT|INTERRES
    51   24   94 1    
    52   25   26 2    
    53   25   27 1    
    54   27   28 1    
    55   27   29 1    
    56   27   95 1    
    57   28   96 1    
    58   28   97 1    
    59   28   98 1    
    60   29   30 am   BACKBONE|DICT|INTERRES
    61   29   99 1    
    62   30   31 2    
    63   30   32 1    
    64   32   33 1    
    65   32   34 1    
    66   32  100 1    
    67   33  101 1    
    68   33  102 1    
    69   33  103 1    
    70   34   35 am   BACKBONE|DICT|INTERRES
    71   34  104 1    
    72   35   36 2    
    73   37   38 2    
    74   37   39 am   BACKBONE|DICT|INTERRES
    75   39   40 1    
    76   39  105 1    
    77   40   41 1    
    78   40   42 1    
    79   40  106 1    
    80   41  107 1    
    81   41  108 1    
    82   41  109 1    
    83   42   43 2    
    84   42   44 am   BACKBONE|DICT|INTERRES
    85   44   45 1    
    86   44  110 1    
    87   45   46 1    
    88   45   47 1    
    89   45  111 1    
    90   46  112 1    
    91   46  113 1    
    92   46  114 1    
    93   47   48 2    
    94   47   49 am   BACKBONE|DICT|INTERRES
    95   49   50 1    
    96   49  115 1    
    97   50   51 1    
    98   50   52 1    
    99   50  116 1    
   100   51  117 1    
   101   51  118 1    
   102   51  119 1    
   103   52   53 2    
   104   52   54 am   BACKBONE|DICT|INTERRES
   105   54   55 1    
   106   54  120 1    
   107   55   56 1    
   108   55   57 1    
   109   55  121 1    
   110   56  122 1    
   111   56  123 1    
   112   56  124 1    
   113   57   58 2    
   114   57   59 am   BACKBONE|DICT|INTERRES
   115   59   60 1    
   116   59  125 1    
   117   60   61 1    
   118   60   62 1    
   119   60  126 1    
   120   61  127 1    
   121   61  128 1    
   122   61  129 1    
   123   62   63 2    
   124   62   64 am   BACKBONE|DICT|INTERRES
   125   64   65 1    
   126   64  130 1    
   127   65   66 1    
   128   65   69 1    
   129   65  131 1    
   130   66   67 am   BACKBONE|DICT|INTERRES
   131   66   68 2    
   132   67  132 1    
   133   67  133 1    
   134   69   70 1    
   135   69  134 1    
   136   69  135 1    
   137   70   71 1    
   138   71  136 1    
   139   71  137 1    
@<TRIPOS>SUBSTRUCTURE
     1 UNK         1 GROUP             0       ****    0 ROOT    
