@<TRIPOS>MOLECULE
3R136
137   139    1
SMALL
USER_CHARGES


@<TRIPOS>ATOM
      1 CA         28.1996   23.9193   -4.2529 C.3       0 UNK        -0.1979 
      2 C          28.7638   24.3420   -2.9057 C.2       0 UNK         0.4864 
      3 O          28.4499   25.4317   -2.4282 O.2       0 UNK        -0.5359 
      4 N          29.5799   23.4840   -2.2773 N.am      1 UNK        -0.4318 
      5 CA         30.2415   23.7248   -0.9867 C.3       1 UNK         0.0824 
      6 C6         31.2075   22.5650   -0.6407 C.3       12 UNK        -0.0944 
      7 S7         32.4889   23.0336    0.5721 S.3       12 UNK        -0.2672 
      8 C8         32.2484   21.8001    1.8914 C.3       12 UNK         0.0333 
      9 C9         32.0430   22.4736    3.2372 C.ar      12 UNK        -0.0807 
     10 C10        33.1356   22.7278    4.0711 C.ar      12 UNK        -0.0894 
     11 C11        32.9523   23.3460    5.3116 C.ar      12 UNK        -0.0804 
     12 C12        31.6639   23.7098    5.7152 C.ar      12 UNK        -0.0824 
     13 C13        30.5642   23.4656    4.8859 C.ar      12 UNK        -0.0762 
     14 C14        30.7595   22.8408    3.6506 C.ar      12 UNK        -0.0782 
     15 C15        29.1670   23.8906    5.3179 C.3       12 UNK         0.0230 
     16 S16        28.4609   25.1623    4.2213 S.3       12 UNK        -0.2608 
     17 C17        29.7397   26.4580    4.3064 C.3       12 UNK        -0.0989 
     18 CA         29.3881   27.7676    3.5643 C.3       5 UNK         0.0716 
     19 N          29.2743   27.6135    2.1090 N.am      5 UNK        -0.4135 
     20 C          29.4226   28.6423    1.2607 C.2       4 UNK         0.5031 
     21 O          29.7231   29.7791    1.6247 O.2       4 UNK        -0.5229 
     22 CA         29.1953   28.3919   -0.2372 C.3       4 UNK         0.0329 
     23 CB         30.4668   27.8353   -0.8936 C.3       4 UNK        -0.2001 
     24 N          28.0573   27.5173   -0.5182 N.am      4 UNK        -0.4303 
     25 C          26.7869   27.7855   -0.1837 C.2       3 UNK         0.5044 
     26 O          26.4364   28.8043    0.4093 O.2       3 UNK        -0.5152 
     27 CA         25.7369   26.7225   -0.5358 C.3       3 UNK         0.0319 
     28 CB         25.3049   26.8350   -2.0066 C.3       3 UNK        -0.2001 
     29 N          26.2416   25.3772   -0.2605 N.am      3 UNK        -0.4354 
     30 C          26.3006   24.8435    0.9682 C.2       2 UNK         0.4964 
     31 O          25.8348   25.3895    1.9681 O.2       2 UNK        -0.5047 
     32 CA         27.0079   23.4826    1.1124 C.3       2 UNK         0.0288 
     33 CB         26.0013   22.3323    0.9522 C.3       2 UNK        -0.2113 
     34 N          28.1164   23.2914    0.1721 N.am      2 UNK        -0.4145 
     35 C          29.2436   24.0203    0.1567 C.2       1 UNK         0.5006 
     36 O          29.4792   24.9305    0.9524 O.2       1 UNK        -0.5103 
     37 C          28.1838   28.5106    4.1765 C.2       5 UNK         0.5055 
     38 O          28.3776   29.2900    5.1098 O.2       5 UNK        -0.5220 
     39 N          26.9789   28.3137    3.6182 N.am      6 UNK        -0.4450 
     40 CA         25.7672   29.0504    3.9945 C.3       6 UNK         0.0367 
     41 CB         24.5345   28.3871    3.3605 C.3       6 UNK        -0.1929 
     42 C          25.8485   30.5412    3.6182 C.2       6 UNK         0.5070 
     43 O          25.4061   31.3897    4.3923 O.2       6 UNK        -0.5237 
     44 N          26.4531   30.8338    2.4589 N.am      7 UNK        -0.4739 
     45 CA         26.7655   32.1841    1.9812 C.3       7 UNK         0.0276 
     46 CB         27.0188   32.1189    0.4654 C.3       7 UNK        -0.1927 
     47 C          27.9693   32.8344    2.6933 C.2       7 UNK         0.5013 
     48 O          28.2056   34.0254    2.4880 O.2       7 UNK        -0.5193 
     49 N          28.7164   32.0485    3.4843 N.am      8 UNK        -0.4253 
     50 CA         29.9586   32.3934    4.1883 C.3       8 UNK         0.0242 
     51 CB         29.7143   33.4849    5.2520 C.3       8 UNK        -0.2000 
     52 C          31.1346   32.7231    3.2446 C.2       8 UNK         0.4948 
     53 O          32.0505   33.4485    3.6370 O.2       8 UNK        -0.5275 
     54 N          31.1047   32.1654    2.0271 N.am      9 UNK        -0.4246 
     55 CA         32.2021   32.1959    1.0596 C.3       9 UNK         0.0261 
     56 CB         31.6306   32.0434   -0.3596 C.3       9 UNK        -0.1959 
     57 C          33.2307   31.0907    1.3537 C.2       9 UNK         0.5033 
     58 O          34.4238   31.2997    1.1305 O.2       9 UNK        -0.5390 
     59 N          32.7491   29.9516    1.8664 N.am      10 UNK        -0.4215 
     60 CA         33.5422   28.8491    2.4105 C.3       10 UNK         0.0240 
     61 CB         33.0492   27.5386    1.7666 C.3       10 UNK        -0.1982 
     62 C          33.3644   28.8244    3.9438 C.2       10 UNK         0.4970 
     63 O          32.4479   29.4749    4.4482 O.2       10 UNK        -0.4916 
     64 N          34.1828   28.0982    4.7137 N.am      11 UNK        -0.4279 
     65 CA         35.3320   27.2570    4.3351 C.3       11 UNK         0.1003 
     66 C          36.6758   27.7291    4.9643 C.2       11 UNK         0.5709 
     67 N          36.7239   28.8614    5.6573 N.am      11 UNK        -0.7358 
     68 O          37.7017   27.0739    4.7971 O.2       11 UNK        -0.4999 
     69 C69        35.0354   25.7546    4.6014 C.3       12 UNK        -0.0954 
     70 S70        34.5463   25.3897    6.3237 S.3       12 UNK        -0.2268 
     71 C71        34.1461   23.6168    6.2173 C.3       12 UNK         0.0203 
     72 H72        27.1107   23.9064   -4.2154 H         1 UNK         0.0888 
     73 H73        28.5054   24.6266   -5.0233 H         1 UNK         0.0888 
     74 H74        28.5421   22.9274   -4.5466 H         1 UNK         0.0888 
     75 H75        29.7968   22.6035   -2.7228 H         1 UNK         0.3017 
     76 H76        30.8396   24.6276   -1.1239 H         1 UNK         0.0873 
     77 H77        31.7466   22.2566   -1.5381 H         1 UNK         0.0745 
     78 H78        30.6543   21.6815   -0.3191 H         1 UNK         0.0745 
     79 H79        33.1234   21.1493    1.9259 H         1 UNK         0.0705 
     80 H80        31.4009   21.1477    1.6804 H         1 UNK         0.0705 
     81 H81        34.1301   22.4485    3.7505 H         1 UNK         0.1334 
     82 H82        31.5235   24.1953    6.6714 H         1 UNK         0.1417 
     83 H83        29.9123   22.6615    3.0025 H         1 UNK         0.1562 
     84 H84        29.1735   24.2706    6.3406 H         1 UNK         0.0748 
     85 H85        28.5107   23.0194    5.3177 H         1 UNK         0.0748 
     86 H86        30.6653   26.0539    3.8926 H         1 UNK         0.0940 
     87 H87        29.9535   26.6693    5.3559 H         1 UNK         0.0940 
     88 H88        30.2396   28.4267    3.7335 H         1 UNK         0.0703 
     89 H89        29.1079   26.6763    1.7485 H         1 UNK         0.3081 
     90 H90        28.9760   29.3566   -0.6990 H         1 UNK         0.0719 
     91 H91        30.3216   27.6612   -1.9600 H         1 UNK         0.0809 
     92 H92        31.2959   28.5360   -0.7895 H         1 UNK         0.0809 
     93 H93        30.7766   26.8950   -0.4388 H         1 UNK         0.0809 
     94 H94        28.2474   26.6768   -1.0603 H         1 UNK         0.2990 
     95 H95        24.8560   26.9029    0.0844 H         1 UNK         0.0690 
     96 H96        24.8913   27.8230   -2.2131 H         1 UNK         0.0788 
     97 H97        24.5336   26.1041   -2.2495 H         1 UNK         0.0788 
     98 H98        26.1384   26.6833   -2.6927 H         1 UNK         0.0788 
     99 H99        26.6944   24.8972   -1.0261 H         1 UNK         0.2993 
    100 H100       27.4193   23.4343    2.1219 H         1 UNK         0.0949 
    101 H101       25.5704   22.3077   -0.0496 H         1 UNK         0.0767 
    102 H102       26.4690   21.3660    1.1424 H         1 UNK         0.0767 
    103 H103       25.1770   22.4357    1.6595 H         1 UNK         0.0767 
    104 H104       27.9990   22.5765   -0.5310 H         1 UNK         0.3013 
    105 H105       26.8940   27.6455    2.8638 H         1 UNK         0.3121 
    106 H106       25.6630   28.9886    5.0799 H         1 UNK         0.0774 
    107 H107       24.5713   28.4150    2.2715 H         1 UNK         0.0815 
    108 H108       23.6191   28.8942    3.6680 H         1 UNK         0.0815 
    109 H109       24.4456   27.3437    3.6641 H         1 UNK         0.0815 
    110 H110       26.6992   30.0664    1.8379 H         1 UNK         0.2987 
    111 H111       25.8983   32.8235    2.1598 H         1 UNK         0.0949 
    112 H112       27.8840   31.4983    0.2295 H         1 UNK         0.0806 
    113 H113       26.1588   31.7075   -0.0635 H         1 UNK         0.0806 
    114 H114       27.2072   33.1117    0.0546 H         1 UNK         0.0806 
    115 H115       28.4283   31.0827    3.5730 H         1 UNK         0.3010 
    116 H116       30.2564   31.4859    4.7164 H         1 UNK         0.0829 
    117 H117       28.8867   33.2188    5.9095 H         1 UNK         0.0813 
    118 H118       30.5948   33.6213    5.8811 H         1 UNK         0.0813 
    119 H119       29.4879   34.4503    4.7988 H         1 UNK         0.0813 
    120 H120       30.3420   31.5242    1.8205 H         1 UNK         0.3038 
    121 H121       32.7113   33.1600    1.1234 H         1 UNK         0.0769 
    122 H122       31.1026   31.0978   -0.4859 H         1 UNK         0.0811 
    123 H123       32.4259   32.0762   -1.1054 H         1 UNK         0.0811 
    124 H124       30.9334   32.8484   -0.5929 H         1 UNK         0.0811 
    125 H125       31.7542   29.9096    2.0573 H         1 UNK         0.3204 
    126 H126       34.5950   29.0045    2.1708 H         1 UNK         0.0748 
    127 H127       33.6705   26.6889    2.0438 H         1 UNK         0.0771 
    128 H128       32.0299   27.2959    2.0631 H         1 UNK         0.0771 
    129 H129       33.0760   27.6007    0.6790 H         1 UNK         0.0771 
    130 H130       34.0065   28.1052    5.7075 H         1 UNK         0.2980 
    131 H131       35.5196   27.3462    3.2673 H         1 UNK         0.0545 
    132 H132       37.6029   29.1590    6.0506 H         1 UNK         0.3459 
    133 H133       35.9007   29.4291    5.7787 H         1 UNK         0.3459 
    134 H134       34.2232   25.4341    3.9487 H         1 UNK         0.0616 
    135 H135       35.8908   25.1311    4.3353 H         1 UNK         0.0616 
    136 H136       33.9276   23.2454    7.2194 H         1 UNK         0.0634 
    137 H137       35.0275   23.0725    5.8745 H         1 UNK         0.0634 
@<TRIPOS>BOND
     1    1    2 1    
     2    1   72 1    
     3    1   73 1    
     4    1   74 1    
     5    2    3 2    
     6    2    4 am   BACKBONE|DICT|INTERRES
     7    4    5 1    
     8    4   75 1    
     9    5    6 1    
    10    5   35 1    
    11    5   76 1    
    12    6    7 1    
    13    6   77 1    
    14    6   78 1    
    15    7    8 1    
    16    8    9 1    
    17    8   79 1    
    18    8   80 1    
    19    9   10 ar   
    20    9   14 ar   
    21   10   11 ar   
    22   10   81 1    
    23   11   12 ar   
    24   11   71 1    
    25   12   13 ar   
    26   12   82 1    
    27   13   14 ar   
    28   13   15 1    
    29   14   83 1    
    30   15   16 1    
    31   15   84 1    
    32   15   85 1    
    33   16   17 1    
    34   17   18 1    
    35   17   86 1    
    36   17   87 1    
    37   18   19 1    
    38   18   37 1    
    39   18   88 1    
    40   19   20 am   BACKBONE|DICT|INTERRES
    41   19   89 1    
    42   20   21 2    
    43   20   22 1    
    44   22   23 1    
    45   22   24 1    
    46   22   90 1    
    47   23   91 1    
    48   23   92 1    
    49   23   93 1    
    50   24   25 am   BACKBONE|DICT|INTERRES
    51   24   94 1    
    52   25   26 2    
    53   25   27 1    
    54   27   28 1    
    55   27   29 1    
    56   27   95 1    
    57   28   96 1    
    58   28   97 1    
    59   28   98 1    
    60   29   30 am   BACKBONE|DICT|INTERRES
    61   29   99 1    
    62   30   31 2    
    63   30   32 1    
    64   32   33 1    
    65   32   34 1    
    66   32  100 1    
    67   33  101 1    
    68   33  102 1    
    69   33  103 1    
    70   34   35 am   BACKBONE|DICT|INTERRES
    71   34  104 1    
    72   35   36 2    
    73   37   38 2    
    74   37   39 am   BACKBONE|DICT|INTERRES
    75   39   40 1    
    76   39  105 1    
    77   40   41 1    
    78   40   42 1    
    79   40  106 1    
    80   41  107 1    
    81   41  108 1    
    82   41  109 1    
    83   42   43 2    
    84   42   44 am   BACKBONE|DICT|INTERRES
    85   44   45 1    
    86   44  110 1    
    87   45   46 1    
    88   45   47 1    
    89   45  111 1    
    90   46  112 1    
    91   46  113 1    
    92   46  114 1    
    93   47   48 2    
    94   47   49 am   BACKBONE|DICT|INTERRES
    95   49   50 1    
    96   49  115 1    
    97   50   51 1    
    98   50   52 1    
    99   50  116 1    
   100   51  117 1    
   101   51  118 1    
   102   51  119 1    
   103   52   53 2    
   104   52   54 am   BACKBONE|DICT|INTERRES
   105   54   55 1    
   106   54  120 1    
   107   55   56 1    
   108   55   57 1    
   109   55  121 1    
   110   56  122 1    
   111   56  123 1    
   112   56  124 1    
   113   57   58 2    
   114   57   59 am   BACKBONE|DICT|INTERRES
   115   59   60 1    
   116   59  125 1    
   117   60   61 1    
   118   60   62 1    
   119   60  126 1    
   120   61  127 1    
   121   61  128 1    
   122   61  129 1    
   123   62   63 2    
   124   62   64 am   BACKBONE|DICT|INTERRES
   125   64   65 1    
   126   64  130 1    
   127   65   66 1    
   128   65   69 1    
   129   65  131 1    
   130   66   67 am   BACKBONE|DICT|INTERRES
   131   66   68 2    
   132   67  132 1    
   133   67  133 1    
   134   69   70 1    
   135   69  134 1    
   136   69  135 1    
   137   70   71 1    
   138   71  136 1    
   139   71  137 1    
@<TRIPOS>SUBSTRUCTURE
     1 UNK         1 GROUP             0       ****    0 ROOT    
