@<TRIPOS>MOLECULE
3R136
137   139    1
SMALL
USER_CHARGES


@<TRIPOS>ATOM
      1 CA         29.3659   28.6275   -2.3643 C.3       0 UNK        -0.1979 
      2 C          29.5164   27.1224   -2.1957 C.2       0 UNK         0.4864 
      3 O          29.7837   26.4198   -3.1719 O.2       0 UNK        -0.5359 
      4 N          29.3310   26.6294   -0.9638 N.am      1 UNK        -0.4318 
      5 CA         29.4281   25.2345   -0.5168 C.3       1 UNK         0.0824 
      6 C6         30.7806   24.5370   -0.8199 C.3       12 UNK        -0.0944 
      7 S7         32.2074   25.4318   -0.1174 S.3       12 UNK        -0.2672 
      8 C8         32.7604   24.2986    1.1927 C.3       12 UNK         0.0333 
      9 C9         31.9394   24.4476    2.4651 C.ar      12 UNK        -0.0807 
     10 C10        32.3119   25.3935    3.4241 C.ar      12 UNK        -0.0894 
     11 C11        31.6166   25.4946    4.6318 C.ar      12 UNK        -0.0804 
     12 C12        30.5305   24.6481    4.8729 C.ar      12 UNK        -0.0824 
     13 C13        30.1307   23.7147    3.9099 C.ar      12 UNK        -0.0762 
     14 C14        30.8409   23.6168    2.7087 C.ar      12 UNK        -0.0782 
     15 C15        28.9484   22.7920    4.1767 C.3       12 UNK         0.0230 
     16 S16        27.4215   23.3778    3.3724 S.3       12 UNK        -0.2608 
     17 C17        27.1072   24.9363    4.2646 C.3       12 UNK        -0.0989 
     18 CA         27.4988   26.1627    3.4069 C.3       5 UNK         0.0716 
     19 N          26.5860   26.3510    2.2763 N.am      5 UNK        -0.4135 
     20 C          26.7754   27.2236    1.2790 C.2       4 UNK         0.5031 
     21 O          27.8170   27.8682    1.1221 O.2       4 UNK        -0.5229 
     22 CA         25.6141   27.3713    0.2860 C.3       4 UNK         0.0329 
     23 CB         25.9542   28.2557   -0.9313 C.3       4 UNK        -0.2001 
     24 N          25.1614   26.0546   -0.1618 N.am      4 UNK        -0.4303 
     25 C          23.9398   25.7806   -0.6400 C.2       3 UNK         0.5044 
     26 O          23.0186   26.5991   -0.6613 O.2       3 UNK        -0.5152 
     27 CA         23.7143   24.3553   -1.1926 C.3       3 UNK         0.0319 
     28 CB         22.5430   24.2773   -2.1953 C.3       3 UNK        -0.2001 
     29 N          24.9328   23.7610   -1.7603 N.am      3 UNK        -0.4354 
     30 C          25.6653   24.2282   -2.7836 C.2       2 UNK         0.4964 
     31 O          25.3548   25.1953   -3.4811 O.2       2 UNK        -0.5047 
     32 CA         27.0172   23.5300   -3.0127 C.3       2 UNK         0.0288 
     33 CB         27.3565   23.4145   -4.5094 C.3       2 UNK        -0.2113 
     34 N          28.1000   24.2455   -2.3331 N.am      2 UNK        -0.4145 
     35 C          28.2309   24.4036   -1.0087 C.2       1 UNK         0.5006 
     36 O          27.4341   23.9537   -0.1847 O.2       1 UNK        -0.5103 
     37 C          27.5469   27.4384    4.2685 C.2       5 UNK         0.5055 
     38 O          26.5274   28.1183    4.4111 O.2       5 UNK        -0.5220 
     39 N          28.7379   27.7524    4.7973 N.am      6 UNK        -0.4450 
     40 CA         29.1096   28.9544    5.5639 C.3       6 UNK         0.0367 
     41 CB         28.2545   29.1259    6.8340 C.3       6 UNK        -0.1929 
     42 C          29.1384   30.2446    4.7245 C.2       6 UNK         0.5070 
     43 O          30.0756   31.0282    4.8705 O.2       6 UNK        -0.5237 
     44 N          28.1698   30.4144    3.8142 N.am      7 UNK        -0.4739 
     45 CA         28.0682   31.5114    2.8427 C.3       7 UNK         0.0276 
     46 CB         26.7595   31.3593    2.0517 C.3       7 UNK        -0.1927 
     47 C          29.2696   31.6162    1.8828 C.2       7 UNK         0.5013 
     48 O          29.5422   32.7039    1.3745 O.2       7 UNK        -0.5193 
     49 N          29.9845   30.4989    1.6857 N.am      8 UNK        -0.4253 
     50 CA         31.2691   30.4209    0.9861 C.3       8 UNK         0.0242 
     51 CB         31.6663   28.9423    0.8479 C.3       8 UNK        -0.2000 
     52 C          32.4106   31.1952    1.6749 C.2       8 UNK         0.4948 
     53 O          33.3795   31.5419    0.9999 O.2       8 UNK        -0.5275 
     54 N          32.3024   31.4133    2.9974 N.am      9 UNK        -0.4246 
     55 CA         33.2616   32.0938    3.8816 C.3       9 UNK         0.0261 
     56 CB         33.4155   33.5777    3.4856 C.3       9 UNK        -0.1959 
     57 C          34.6259   31.3855    4.0334 C.2       9 UNK         0.5033 
     58 O          35.5577   31.9829    4.5748 O.2       9 UNK        -0.5390 
     59 N          34.7273   30.1298    3.5752 N.am      10 UNK        -0.4215 
     60 CA         35.9383   29.3078    3.6433 C.3       10 UNK         0.0240 
     61 CB         35.8277   28.1629    2.6226 C.3       10 UNK        -0.1982 
     62 C          36.2126   28.7502    5.0508 C.2       10 UNK         0.4970 
     63 O          37.3757   28.5416    5.3981 O.2       10 UNK        -0.4916 
     64 N          35.1465   28.5068    5.8226 N.am      11 UNK        -0.4279 
     65 CA         35.2081   28.0189    7.2063 C.3       11 UNK         0.1003 
     66 C          35.6191   29.1460    8.1902 C.2       11 UNK         0.5709 
     67 N          36.4309   28.8335    9.1910 N.am      11 UNK        -0.7358 
     68 O          35.1746   30.2871    8.0786 O.2       11 UNK        -0.4999 
     69 C69        33.8700   27.3666    7.6402 C.3       12 UNK        -0.0954 
     70 S70        33.4638   25.8949    6.6414 S.3       12 UNK        -0.2268 
     71 C71        32.0534   26.5094    5.6762 C.3       12 UNK         0.0203 
     72 H72        28.6128   28.8479   -3.1203 H         1 UNK         0.0888 
     73 H73        29.0664   29.1139   -1.4355 H         1 UNK         0.0888 
     74 H74        30.3113   29.0637   -2.6854 H         1 UNK         0.0888 
     75 H75        29.0243   27.2645   -0.2306 H         1 UNK         0.3017 
     76 H76        29.3347   25.2799    0.5700 H         1 UNK         0.0873 
     77 H77        30.7714   23.5153   -0.4371 H         1 UNK         0.0745 
     78 H78        30.9435   24.4444   -1.8945 H         1 UNK         0.0745 
     79 H79        33.8080   24.5121    1.4109 H         1 UNK         0.0705 
     80 H80        32.7372   23.2682    0.8347 H         1 UNK         0.0705 
     81 H81        33.1624   26.0347    3.2411 H         1 UNK         0.1334 
     82 H82        30.0013   24.7110    5.8141 H         1 UNK         0.1417 
     83 H83        30.5446   22.8831    1.9715 H         1 UNK         0.1562 
     84 H84        28.7766   22.6835    5.2488 H         1 UNK         0.0748 
     85 H85        29.1773   21.7916    3.8064 H         1 UNK         0.0748 
     86 H86        27.6511   24.9193    5.2105 H         1 UNK         0.0940 
     87 H87        26.0507   24.9773    4.5369 H         1 UNK         0.0940 
     88 H88        28.4975   26.0003    2.9950 H         1 UNK         0.0703 
     89 H89        25.7059   25.8606    2.3300 H         1 UNK         0.3081 
     90 H90        24.8080   27.8552    0.8415 H         1 UNK         0.0719 
     91 H91        26.6640   27.7634   -1.5943 H         1 UNK         0.0809 
     92 H92        25.0621   28.4791   -1.5162 H         1 UNK         0.0809 
     93 H93        26.3847   29.2109   -0.6291 H         1 UNK         0.0809 
     94 H94        25.8554   25.3127   -0.1499 H         1 UNK         0.2990 
     95 H95        23.4503   23.7401   -0.3312 H         1 UNK         0.0690 
     96 H96        22.4030   23.2611   -2.5639 H         1 UNK         0.0788 
     97 H97        22.7018   24.9279   -3.0559 H         1 UNK         0.0788 
     98 H98        21.6062   24.5822   -1.7274 H         1 UNK         0.0788 
     99 H99        25.3225   22.9958   -1.2249 H         1 UNK         0.2993 
    100 H100       26.9635   22.5197   -2.6013 H         1 UNK         0.0949 
    101 H101       27.4882   24.3939   -4.9719 H         1 UNK         0.0767 
    102 H102       28.2740   22.8463   -4.6645 H         1 UNK         0.0767 
    103 H103       26.5612   22.9009   -5.0513 H         1 UNK         0.0767 
    104 H104       28.7526   24.7585   -2.9198 H         1 UNK         0.3013 
    105 H105       29.5085   27.1342    4.5851 H         1 UNK         0.3121 
    106 H106       30.1356   28.7896    5.8937 H         1 UNK         0.0774 
    107 H107       27.2142   29.3567    6.6038 H         1 UNK         0.0815 
    108 H108       28.2713   28.2256    7.4481 H         1 UNK         0.0815 
    109 H109       28.6350   29.9437    7.4474 H         1 UNK         0.0815 
    110 H110       27.4336   29.7139    3.7956 H         1 UNK         0.2987 
    111 H111       28.0260   32.4456    3.4067 H         1 UNK         0.0949 
    112 H112       26.6381   32.1722    1.3343 H         1 UNK         0.0806 
    113 H113       26.7355   30.4240    1.4925 H         1 UNK         0.0806 
    114 H114       25.8918   31.3780    2.7113 H         1 UNK         0.0806 
    115 H115       29.6337   29.6454    2.0969 H         1 UNK         0.3010 
    116 H116       31.1354   30.8442   -0.0116 H         1 UNK         0.0829 
    117 H117       30.9095   28.3796    0.3077 H         1 UNK         0.0813 
    118 H118       32.5999   28.8347    0.2935 H         1 UNK         0.0813 
    119 H119       31.8051   28.4621    1.8174 H         1 UNK         0.0813 
    120 H120       31.4497   31.1154    3.4642 H         1 UNK         0.3038 
    121 H121       32.8090   32.0693    4.8742 H         1 UNK         0.0769 
    122 H122       33.9944   34.1252    4.2305 H         1 UNK         0.0811 
    123 H123       32.4456   34.0691    3.4071 H         1 UNK         0.0811 
    124 H124       33.9282   33.6914    2.5301 H         1 UNK         0.0811 
    125 H125       33.9248   29.7310    3.1127 H         1 UNK         0.3204 
    126 H126       36.7914   29.9301    3.3638 H         1 UNK         0.0748 
    127 H127       36.7307   27.5507    2.6242 H         1 UNK         0.0771 
    128 H128       34.9877   27.5036    2.8412 H         1 UNK         0.0771 
    129 H129       35.6995   28.5453    1.6095 H         1 UNK         0.0771 
    130 H130       34.2329   28.7499    5.4768 H         1 UNK         0.2980 
    131 H131       35.9787   27.2459    7.2481 H         1 UNK         0.0545 
    132 H132       36.6951   29.5501    9.8489 H         1 UNK         0.3459 
    133 H133       36.7904   27.8976    9.2989 H         1 UNK         0.3459 
    134 H134       33.0523   28.0885    7.5947 H         1 UNK         0.0616 
    135 H135       33.9279   27.0413    8.6807 H         1 UNK         0.0616 
    136 H136       31.2336   26.7307    6.3607 H         1 UNK         0.0634 
    137 H137       32.3219   27.4473    5.1880 H         1 UNK         0.0634 
@<TRIPOS>BOND
     1    1    2 1    
     2    1   72 1    
     3    1   73 1    
     4    1   74 1    
     5    2    3 2    
     6    2    4 am   BACKBONE|DICT|INTERRES
     7    4    5 1    
     8    4   75 1    
     9    5    6 1    
    10    5   35 1    
    11    5   76 1    
    12    6    7 1    
    13    6   77 1    
    14    6   78 1    
    15    7    8 1    
    16    8    9 1    
    17    8   79 1    
    18    8   80 1    
    19    9   10 ar   
    20    9   14 ar   
    21   10   11 ar   
    22   10   81 1    
    23   11   12 ar   
    24   11   71 1    
    25   12   13 ar   
    26   12   82 1    
    27   13   14 ar   
    28   13   15 1    
    29   14   83 1    
    30   15   16 1    
    31   15   84 1    
    32   15   85 1    
    33   16   17 1    
    34   17   18 1    
    35   17   86 1    
    36   17   87 1    
    37   18   19 1    
    38   18   37 1    
    39   18   88 1    
    40   19   20 am   BACKBONE|DICT|INTERRES
    41   19   89 1    
    42   20   21 2    
    43   20   22 1    
    44   22   23 1    
    45   22   24 1    
    46   22   90 1    
    47   23   91 1    
    48   23   92 1    
    49   23   93 1    
    50   24   25 am   BACKBONE|DICT|INTERRES
    51   24   94 1    
    52   25   26 2    
    53   25   27 1    
    54   27   28 1    
    55   27   29 1    
    56   27   95 1    
    57   28   96 1    
    58   28   97 1    
    59   28   98 1    
    60   29   30 am   BACKBONE|DICT|INTERRES
    61   29   99 1    
    62   30   31 2    
    63   30   32 1    
    64   32   33 1    
    65   32   34 1    
    66   32  100 1    
    67   33  101 1    
    68   33  102 1    
    69   33  103 1    
    70   34   35 am   BACKBONE|DICT|INTERRES
    71   34  104 1    
    72   35   36 2    
    73   37   38 2    
    74   37   39 am   BACKBONE|DICT|INTERRES
    75   39   40 1    
    76   39  105 1    
    77   40   41 1    
    78   40   42 1    
    79   40  106 1    
    80   41  107 1    
    81   41  108 1    
    82   41  109 1    
    83   42   43 2    
    84   42   44 am   BACKBONE|DICT|INTERRES
    85   44   45 1    
    86   44  110 1    
    87   45   46 1    
    88   45   47 1    
    89   45  111 1    
    90   46  112 1    
    91   46  113 1    
    92   46  114 1    
    93   47   48 2    
    94   47   49 am   BACKBONE|DICT|INTERRES
    95   49   50 1    
    96   49  115 1    
    97   50   51 1    
    98   50   52 1    
    99   50  116 1    
   100   51  117 1    
   101   51  118 1    
   102   51  119 1    
   103   52   53 2    
   104   52   54 am   BACKBONE|DICT|INTERRES
   105   54   55 1    
   106   54  120 1    
   107   55   56 1    
   108   55   57 1    
   109   55  121 1    
   110   56  122 1    
   111   56  123 1    
   112   56  124 1    
   113   57   58 2    
   114   57   59 am   BACKBONE|DICT|INTERRES
   115   59   60 1    
   116   59  125 1    
   117   60   61 1    
   118   60   62 1    
   119   60  126 1    
   120   61  127 1    
   121   61  128 1    
   122   61  129 1    
   123   62   63 2    
   124   62   64 am   BACKBONE|DICT|INTERRES
   125   64   65 1    
   126   64  130 1    
   127   65   66 1    
   128   65   69 1    
   129   65  131 1    
   130   66   67 am   BACKBONE|DICT|INTERRES
   131   66   68 2    
   132   67  132 1    
   133   67  133 1    
   134   69   70 1    
   135   69  134 1    
   136   69  135 1    
   137   70   71 1    
   138   71  136 1    
   139   71  137 1    
@<TRIPOS>SUBSTRUCTURE
     1 UNK         1 GROUP             0       ****    0 ROOT    
