@<TRIPOS>MOLECULE
3R136
137   139    1
SMALL
USER_CHARGES


@<TRIPOS>ATOM
      1 CA         24.5913   21.3592    0.6879 C.3       0 UNK        -0.1979 
      2 C          25.7204   21.9524   -0.1414 C.2       0 UNK         0.4864 
      3 O          25.4594   22.7072   -1.0803 O.2       0 UNK        -0.5359 
      4 N          26.9743   21.6142    0.1919 N.am      1 UNK        -0.4318 
      5 CA         28.1748   22.1725   -0.4360 C.3       1 UNK         0.0824 
      6 C6         29.4421   21.3687   -0.0614 C.3       12 UNK        -0.0944 
      7 S7         30.8717   21.8008   -1.1136 S.3       12 UNK        -0.2672 
      8 C8         32.2752   21.5228    0.0113 C.3       12 UNK         0.0333 
      9 C9         32.3896   22.5882    1.0946 C.ar      12 UNK        -0.0807 
     10 C10        33.0062   23.8149    0.8201 C.ar      12 UNK        -0.0894 
     11 C11        33.1838   24.7616    1.8352 C.ar      12 UNK        -0.0804 
     12 C12        32.7357   24.4739    3.1268 C.ar      12 UNK        -0.0824 
     13 C13        32.0829   23.2716    3.4045 C.ar      12 UNK        -0.0762 
     14 C14        31.9231   22.3273    2.3873 C.ar      12 UNK        -0.0782 
     15 C15        31.5587   22.9898    4.8041 C.3       12 UNK         0.0230 
     16 S16        29.8280   23.5261    4.9909 S.3       12 UNK        -0.2608 
     17 C17        29.9957   25.3455    5.0277 C.3       12 UNK        -0.0989 
     18 CA         29.5353   26.0240    3.7046 C.3       5 UNK         0.0716 
     19 N          28.1382   25.7230    3.3591 N.am      5 UNK        -0.4135 
     20 C          27.0511   26.0968    4.0519 C.2       4 UNK         0.5031 
     21 O          27.0900   26.7676    5.0851 O.2       4 UNK        -0.5229 
     22 CA         25.6922   25.6875    3.4641 C.3       4 UNK         0.0329 
     23 CB         24.4962   26.1748    4.3113 C.3       4 UNK        -0.2001 
     24 N          25.6067   26.2067    2.1040 N.am      4 UNK        -0.4303 
     25 C          24.7489   25.8309    1.1527 C.2       3 UNK         0.5044 
     26 O          23.8446   25.0126    1.3212 O.2       3 UNK        -0.5152 
     27 CA         24.9520   26.4645   -0.2359 C.3       3 UNK         0.0319 
     28 CB         24.6155   27.9699   -0.2364 C.3       3 UNK        -0.2001 
     29 N          26.2838   26.1947   -0.7957 N.am      3 UNK        -0.4354 
     30 C          27.4802   26.6213   -0.3608 C.2       2 UNK         0.4964 
     31 O          27.6362   27.4213    0.5649 O.2       2 UNK        -0.5047 
     32 CA         28.7052   25.9573   -1.0197 C.3       2 UNK         0.0288 
     33 CB         30.0363   26.3286   -0.3380 C.3       2 UNK        -0.2113 
     34 N          28.5730   24.4975   -1.0928 N.am      2 UNK        -0.4145 
     35 C          28.3129   23.6636   -0.0725 C.2       1 UNK         0.5006 
     36 O          28.1686   24.0173    1.1023 O.2       1 UNK        -0.5103 
     37 C          29.8198   27.5462    3.6914 C.2       5 UNK         0.5055 
     38 O          30.5353   28.0420    4.5651 O.2       5 UNK        -0.5220 
     39 N          29.2529   28.2723    2.7164 N.am      6 UNK        -0.4450 
     40 CA         29.1632   29.7321    2.7183 C.3       6 UNK         0.0367 
     41 CB         27.7237   30.1270    3.1015 C.3       6 UNK        -0.1929 
     42 C          29.6100   30.3632    1.3887 C.2       6 UNK         0.5070 
     43 O          29.0231   31.3618    0.9693 O.2       6 UNK        -0.5237 
     44 N          30.6626   29.8186    0.7562 N.am      7 UNK        -0.4739 
     45 CA         31.2363   30.3548   -0.4928 C.3       7 UNK         0.0276 
     46 CB         32.2892   29.3895   -1.0652 C.3       7 UNK        -0.1927 
     47 C          31.8570   31.7548   -0.3312 C.2       7 UNK         0.5013 
     48 O          31.8576   32.5355   -1.2834 O.2       7 UNK        -0.5193 
     49 N          32.3545   32.0410    0.8762 N.am      8 UNK        -0.4253 
     50 CA         32.8764   33.3344    1.3051 C.3       8 UNK         0.0242 
     51 CB         34.4154   33.2728    1.3533 C.3       8 UNK        -0.2000 
     52 C          32.2426   33.6722    2.6610 C.2       8 UNK         0.4948 
     53 O          32.9573   33.8651    3.6455 O.2       8 UNK        -0.5275 
     54 N          30.9010   33.6467    2.7081 N.am      9 UNK        -0.4246 
     55 CA         30.0112   33.8243    3.8700 C.3       9 UNK         0.0261 
     56 CB         30.1995   35.2042    4.5305 C.3       9 UNK        -0.1959 
     57 C          30.0882   32.6922    4.9134 C.2       9 UNK         0.5033 
     58 O          29.0473   32.2656    5.4126 O.2       9 UNK        -0.5390 
     59 N          31.2982   32.2041    5.1944 N.am      10 UNK        -0.4215 
     60 CA         31.5987   31.0418    6.0189 C.3       10 UNK         0.0240 
     61 CB         31.5881   31.4263    7.5117 C.3       10 UNK        -0.1982 
     62 C          32.9591   30.5128    5.5524 C.2       10 UNK         0.4970 
     63 O          33.9869   30.9802    6.0463 O.2       10 UNK        -0.4916 
     64 N          32.9486   29.5989    4.5734 N.am      11 UNK        -0.4279 
     65 CA         34.1657   28.9696    4.0296 C.3       11 UNK         0.1003 
     66 C          34.6254   27.7053    4.8126 C.2       11 UNK         0.5709 
     67 N          33.8323   27.1706    5.7349 N.am      11 UNK        -0.7358 
     68 O          35.7298   27.2148    4.5928 O.2       11 UNK        -0.4999 
     69 C69        34.0828   28.7415    2.4942 C.3       12 UNK        -0.0954 
     70 S70        32.8415   27.5108    1.9691 S.3       12 UNK        -0.2268 
     71 C71        33.8947   26.0796    1.5638 C.3       12 UNK         0.0203 
     72 H72        23.9205   20.7827    0.0515 H         1 UNK         0.0888 
     73 H73        24.9634   20.7018    1.4735 H         1 UNK         0.0888 
     74 H74        24.0154   22.1566    1.1573 H         1 UNK         0.0888 
     75 H75        27.1321   21.0138    0.9883 H         1 UNK         0.3017 
     76 H76        28.0319   22.0883   -1.5159 H         1 UNK         0.0873 
     77 H77        29.2583   20.3007   -0.1891 H         1 UNK         0.0745 
     78 H78        29.6834   21.5098    0.9922 H         1 UNK         0.0745 
     79 H79        32.1902   20.5292    0.4544 H         1 UNK         0.0705 
     80 H80        33.1937   21.5106   -0.5773 H         1 UNK         0.0705 
     81 H81        33.3663   24.0204   -0.1788 H         1 UNK         0.1334 
     82 H82        32.8846   25.2004    3.9128 H         1 UNK         0.1417 
     83 H83        31.4410   21.3845    2.6073 H         1 UNK         0.1562 
     84 H84        32.1820   23.4776    5.5553 H         1 UNK         0.0748 
     85 H85        31.6182   21.9204    5.0118 H         1 UNK         0.0748 
     86 H86        31.0313   25.6000    5.2553 H         1 UNK         0.0940 
     87 H87        29.4161   25.7229    5.8716 H         1 UNK         0.0940 
     88 H88        30.1387   25.6048    2.9006 H         1 UNK         0.0703 
     89 H89        28.0200   25.1452    2.5268 H         1 UNK         0.3081 
     90 H90        25.6732   24.5965    3.4230 H         1 UNK         0.0719 
     91 H91        24.5703   25.8110    5.3369 H         1 UNK         0.0809 
     92 H92        24.4518   27.2638    4.3517 H         1 UNK         0.0809 
     93 H93        23.5473   25.8157    3.9136 H         1 UNK         0.0809 
     94 H94        26.3436   26.8489    1.8229 H         1 UNK         0.2990 
     95 H95        24.2465   25.9744   -0.9091 H         1 UNK         0.0690 
     96 H96        24.7005   28.3924   -1.2374 H         1 UNK         0.0788 
     97 H97        25.2668   28.5433    0.4235 H         1 UNK         0.0788 
     98 H98        23.5912   28.1363    0.0995 H         1 UNK         0.0788 
     99 H99        26.2906   25.4873   -1.5183 H         1 UNK         0.2993 
    100 H100       28.7398   26.3323   -2.0437 H         1 UNK         0.0949 
    101 H101       30.1142   25.9114    0.6638 H         1 UNK         0.0767 
    102 H102       30.8904   25.9672   -0.9107 H         1 UNK         0.0767 
    103 H103       30.1338   27.4073   -0.2502 H         1 UNK         0.0767 
    104 H104       28.6756   24.0979   -2.0156 H         1 UNK         0.3013 
    105 H105       28.7204   27.8086    1.9812 H         1 UNK         0.3121 
    106 H106       29.8314   30.1473    3.4729 H         1 UNK         0.0774 
    107 H107       27.0021   29.7731    2.3641 H         1 UNK         0.0815 
    108 H108       27.4458   29.7110    4.0703 H         1 UNK         0.0815 
    109 H109       27.6150   31.2096    3.1767 H         1 UNK         0.0815 
    110 H110       31.1048   28.9999    1.1546 H         1 UNK         0.2987 
    111 H111       30.4243   30.4417   -1.2183 H         1 UNK         0.0949 
    112 H112       31.8774   28.4031   -1.2681 H         1 UNK         0.0806 
    113 H113       32.6816   29.7655   -2.0111 H         1 UNK         0.0806 
    114 H114       33.1397   29.2696   -0.3946 H         1 UNK         0.0806 
    115 H115       32.2859   31.3305    1.5902 H         1 UNK         0.3010 
    116 H116       32.5795   34.1208    0.6076 H         1 UNK         0.0829 
    117 H117       34.7679   32.5112    2.0503 H         1 UNK         0.0813 
    118 H118       34.8351   34.2281    1.6711 H         1 UNK         0.0813 
    119 H119       34.8320   33.0461    0.3719 H         1 UNK         0.0813 
    120 H120       30.4192   33.4196    1.8470 H         1 UNK         0.3038 
    121 H121       28.9990   33.7956    3.4628 H         1 UNK         0.0769 
    122 H122       30.0787   36.0100    3.8066 H         1 UNK         0.0811 
    123 H123       31.1828   35.3098    4.9895 H         1 UNK         0.0811 
    124 H124       29.4594   35.3610    5.3163 H         1 UNK         0.0811 
    125 H125       32.0973   32.6601    4.7539 H         1 UNK         0.3204 
    126 H126       30.8429   30.2722    5.8540 H         1 UNK         0.0748 
    127 H127       32.2823   32.2398    7.7262 H         1 UNK         0.0771 
    128 H128       30.5952   31.7433    7.8311 H         1 UNK         0.0771 
    129 H129       31.8733   30.5773    8.1340 H         1 UNK         0.0771 
    130 H130       32.0654   29.1731    4.3051 H         1 UNK         0.2980 
    131 H131       34.9856   29.6781    4.1617 H         1 UNK         0.0545 
    132 H132       34.1510   26.3677    6.2528 H         1 UNK         0.3459 
    133 H133       32.9224   27.5641    5.9152 H         1 UNK         0.3459 
    134 H134       35.0611   28.4593    2.1017 H         1 UNK         0.0616 
    135 H135       33.8427   29.6850    2.0036 H         1 UNK         0.0616 
    136 H136       34.8065   26.1025    2.1615 H         1 UNK         0.0634 
    137 H137       34.2033   26.1548    0.5202 H         1 UNK         0.0634 
@<TRIPOS>BOND
     1    1    2 1    
     2    1   72 1    
     3    1   73 1    
     4    1   74 1    
     5    2    3 2    
     6    2    4 am   BACKBONE|DICT|INTERRES
     7    4    5 1    
     8    4   75 1    
     9    5    6 1    
    10    5   35 1    
    11    5   76 1    
    12    6    7 1    
    13    6   77 1    
    14    6   78 1    
    15    7    8 1    
    16    8    9 1    
    17    8   79 1    
    18    8   80 1    
    19    9   10 ar   
    20    9   14 ar   
    21   10   11 ar   
    22   10   81 1    
    23   11   12 ar   
    24   11   71 1    
    25   12   13 ar   
    26   12   82 1    
    27   13   14 ar   
    28   13   15 1    
    29   14   83 1    
    30   15   16 1    
    31   15   84 1    
    32   15   85 1    
    33   16   17 1    
    34   17   18 1    
    35   17   86 1    
    36   17   87 1    
    37   18   19 1    
    38   18   37 1    
    39   18   88 1    
    40   19   20 am   BACKBONE|DICT|INTERRES
    41   19   89 1    
    42   20   21 2    
    43   20   22 1    
    44   22   23 1    
    45   22   24 1    
    46   22   90 1    
    47   23   91 1    
    48   23   92 1    
    49   23   93 1    
    50   24   25 am   BACKBONE|DICT|INTERRES
    51   24   94 1    
    52   25   26 2    
    53   25   27 1    
    54   27   28 1    
    55   27   29 1    
    56   27   95 1    
    57   28   96 1    
    58   28   97 1    
    59   28   98 1    
    60   29   30 am   BACKBONE|DICT|INTERRES
    61   29   99 1    
    62   30   31 2    
    63   30   32 1    
    64   32   33 1    
    65   32   34 1    
    66   32  100 1    
    67   33  101 1    
    68   33  102 1    
    69   33  103 1    
    70   34   35 am   BACKBONE|DICT|INTERRES
    71   34  104 1    
    72   35   36 2    
    73   37   38 2    
    74   37   39 am   BACKBONE|DICT|INTERRES
    75   39   40 1    
    76   39  105 1    
    77   40   41 1    
    78   40   42 1    
    79   40  106 1    
    80   41  107 1    
    81   41  108 1    
    82   41  109 1    
    83   42   43 2    
    84   42   44 am   BACKBONE|DICT|INTERRES
    85   44   45 1    
    86   44  110 1    
    87   45   46 1    
    88   45   47 1    
    89   45  111 1    
    90   46  112 1    
    91   46  113 1    
    92   46  114 1    
    93   47   48 2    
    94   47   49 am   BACKBONE|DICT|INTERRES
    95   49   50 1    
    96   49  115 1    
    97   50   51 1    
    98   50   52 1    
    99   50  116 1    
   100   51  117 1    
   101   51  118 1    
   102   51  119 1    
   103   52   53 2    
   104   52   54 am   BACKBONE|DICT|INTERRES
   105   54   55 1    
   106   54  120 1    
   107   55   56 1    
   108   55   57 1    
   109   55  121 1    
   110   56  122 1    
   111   56  123 1    
   112   56  124 1    
   113   57   58 2    
   114   57   59 am   BACKBONE|DICT|INTERRES
   115   59   60 1    
   116   59  125 1    
   117   60   61 1    
   118   60   62 1    
   119   60  126 1    
   120   61  127 1    
   121   61  128 1    
   122   61  129 1    
   123   62   63 2    
   124   62   64 am   BACKBONE|DICT|INTERRES
   125   64   65 1    
   126   64  130 1    
   127   65   66 1    
   128   65   69 1    
   129   65  131 1    
   130   66   67 am   BACKBONE|DICT|INTERRES
   131   66   68 2    
   132   67  132 1    
   133   67  133 1    
   134   69   70 1    
   135   69  134 1    
   136   69  135 1    
   137   70   71 1    
   138   71  136 1    
   139   71  137 1    
@<TRIPOS>SUBSTRUCTURE
     1 UNK         1 GROUP             0       ****    0 ROOT    
