@<TRIPOS>MOLECULE
3R136
137   139    1
SMALL
USER_CHARGES


@<TRIPOS>ATOM
      1 CA         31.3986   22.0703    5.2112 C.3       0 UNK        -0.1979 
      2 C          30.4223   21.5158    4.1838 C.2       0 UNK         0.4864 
      3 O          30.3695   20.3014    3.9841 O.2       0 UNK        -0.5359 
      4 N          29.6517   22.3999    3.5413 N.am      1 UNK        -0.4318 
      5 CA         28.6118   22.0887    2.5585 C.3       1 UNK         0.0824 
      6 C6         29.0400   22.4092    1.0995 C.3       12 UNK        -0.0944 
      7 S7         30.5019   21.4657    0.5496 S.3       12 UNK        -0.2672 
      8 C8         31.2970   22.6391   -0.6075 C.3       12 UNK         0.0333 
      9 C9         31.8820   23.9181    0.0016 C.ar      12 UNK        -0.0807 
     10 C10        31.9673   24.1412    1.3818 C.ar      12 UNK        -0.0894 
     11 C11        32.4863   25.3360    1.8859 C.ar      12 UNK        -0.0804 
     12 C12        32.9554   26.3101    1.0010 C.ar      12 UNK        -0.0824 
     13 C13        32.9097   26.0941   -0.3785 C.ar      12 UNK        -0.0762 
     14 C14        32.3680   24.9001   -0.8674 C.ar      12 UNK        -0.0782 
     15 C15        33.5078   27.1186   -1.3346 C.3       12 UNK         0.0230 
     16 S16        32.3558   27.6259   -2.6507 S.3       12 UNK        -0.2608 
     17 C17        31.4338   28.9991   -1.8838 C.3       12 UNK        -0.0989 
     18 CA         29.9103   28.6976   -1.8261 C.3       5 UNK         0.0716 
     19 N          29.5515   27.7561   -0.7544 N.am      5 UNK        -0.4135 
     20 C          29.5411   28.0123    0.5638 C.2       4 UNK         0.5031 
     21 O          29.8786   29.0890    1.0601 O.2       4 UNK        -0.5229 
     22 CA         29.0052   26.8860    1.4730 C.3       4 UNK         0.0329 
     23 CB         28.8152   27.3457    2.9332 C.3       4 UNK        -0.2001 
     24 N          27.7699   26.2608    0.9748 N.am      4 UNK        -0.4303 
     25 C          26.6373   26.8733    0.5925 C.2       3 UNK         0.5044 
     26 O          26.4776   28.0934    0.5860 O.2       3 UNK        -0.5152 
     27 CA         25.4984   25.9694    0.0936 C.3       3 UNK         0.0319 
     28 CB         25.6712   25.6732   -1.4050 C.3       3 UNK        -0.2001 
     29 N          25.4104   24.7085    0.8348 N.am      3 UNK        -0.4354 
     30 C          24.8591   24.5893    2.0520 C.2       2 UNK         0.4964 
     31 O          24.3242   25.5176    2.6590 O.2       2 UNK        -0.5047 
     32 CA         24.9226   23.1974    2.7075 C.3       2 UNK         0.0288 
     33 CB         23.7556   22.3180    2.2285 C.3       2 UNK        -0.2113 
     34 N          26.1927   22.4999    2.4733 N.am      2 UNK        -0.4145 
     35 C          27.3770   22.9217    2.9388 C.2       1 UNK         0.5006 
     36 O          27.5206   23.9462    3.6126 O.2       1 UNK        -0.5103 
     37 C          29.0262   29.9683   -1.8016 C.2       5 UNK         0.5055 
     38 O          29.5387   31.0860   -1.8798 O.2       5 UNK        -0.5220 
     39 N          27.7048   29.7560   -1.6926 N.am      6 UNK        -0.4450 
     40 CA         26.6466   30.7664   -1.5698 C.3       6 UNK         0.0367 
     41 CB         26.5340   31.6188   -2.8525 C.3       6 UNK        -0.1929 
     42 C          26.8011   31.6063   -0.2876 C.2       6 UNK         0.5070 
     43 O          26.7616   32.8367   -0.3438 O.2       6 UNK        -0.5237 
     44 N          26.9758   30.9031    0.8414 N.am      7 UNK        -0.4739 
     45 CA         27.1881   31.4207    2.1971 C.3       7 UNK         0.0276 
     46 CB         25.9013   32.0852    2.7308 C.3       7 UNK        -0.1927 
     47 C          28.4256   32.3342    2.2960 C.2       7 UNK         0.5013 
     48 O          28.3190   33.4788    2.7409 O.2       7 UNK        -0.5193 
     49 N          29.5867   31.8055    1.8843 N.am      8 UNK        -0.4253 
     50 CA         30.8753   32.5091    1.8867 C.3       8 UNK         0.0242 
     51 CB         31.8595   31.7460    0.9826 C.3       8 UNK        -0.2000 
     52 C          31.4887   32.7168    3.2866 C.2       8 UNK         0.4948 
     53 O          32.4935   33.4209    3.3925 O.2       8 UNK        -0.5275 
     54 N          30.9088   32.0823    4.3191 N.am      9 UNK        -0.4246 
     55 CA         31.3582   32.0459    5.7208 C.3       9 UNK         0.0261 
     56 CB         31.3653   33.4554    6.3510 C.3       9 UNK        -0.1959 
     57 C          32.6909   31.2930    5.9207 C.2       9 UNK         0.5033 
     58 O          33.3708   31.4972    6.9286 O.2       9 UNK        -0.5390 
     59 N          33.0241   30.4176    4.9656 N.am      10 UNK        -0.4215 
     60 CA         34.1486   29.4872    5.0089 C.3       10 UNK         0.0240 
     61 CB         34.5668   29.1825    3.5595 C.3       10 UNK        -0.1982 
     62 C          33.7656   28.2002    5.7613 C.2       10 UNK         0.4970 
     63 O          32.5973   28.0098    6.1089 O.2       10 UNK        -0.4916 
     64 N          34.7608   27.3293    5.9687 N.am      11 UNK        -0.4279 
     65 CA         34.6431   26.0127    6.6253 C.3       11 UNK         0.1003 
     66 C          34.4003   26.0727    8.1652 C.2       11 UNK         0.5709 
     67 N          34.5650   27.2163    8.8199 N.am      11 UNK        -0.7358 
     68 O          34.0919   25.0591    8.7882 O.2       11 UNK        -0.4999 
     69 C69        33.6582   25.0391    5.9086 C.3       12 UNK        -0.0954 
     70 S70        34.0075   24.8142    4.1306 S.3       12 UNK        -0.2268 
     71 C71        32.5281   25.5669    3.3873 C.3       12 UNK         0.0203 
     72 H72        32.4216   21.9643    4.8507 H         1 UNK         0.0888 
     73 H73        31.2182   23.1252    5.4162 H         1 UNK         0.0888 
     74 H74        31.3088   21.5253    6.1506 H         1 UNK         0.0888 
     75 H75        29.6531   23.3708    3.8258 H         1 UNK         0.3017 
     76 H76        28.3366   21.0342    2.6306 H         1 UNK         0.0873 
     77 H77        28.2305   22.1816    0.4036 H         1 UNK         0.0745 
     78 H78        29.2421   23.4755    0.9890 H         1 UNK         0.0745 
     79 H79        30.5682   22.9085   -1.3735 H         1 UNK         0.0705 
     80 H80        32.0999   22.1085   -1.1211 H         1 UNK         0.0705 
     81 H81        31.6342   23.3894    2.0791 H         1 UNK         0.1334 
     82 H82        33.3766   27.2269    1.3851 H         1 UNK         0.1417 
     83 H83        32.3359   24.7313   -1.9356 H         1 UNK         0.1562 
     84 H84        34.3857   26.6718   -1.8029 H         1 UNK         0.0748 
     85 H85        33.8674   28.0002   -0.8016 H         1 UNK         0.0748 
     86 H86        31.6448   29.8759   -2.4986 H         1 UNK         0.0940 
     87 H87        31.8261   29.2289   -0.8922 H         1 UNK         0.0940 
     88 H88        29.6380   28.2036   -2.7604 H         1 UNK         0.0703 
     89 H89        29.2637   26.8383   -1.0598 H         1 UNK         0.3081 
     90 H90        29.7675   26.1072    1.4696 H         1 UNK         0.0719 
     91 H91        28.4972   26.5202    3.5695 H         1 UNK         0.0809 
     92 H92        28.0669   28.1345    3.0118 H         1 UNK         0.0809 
     93 H93        29.7468   27.7322    3.3491 H         1 UNK         0.0809 
     94 H94        27.7759   25.2533    0.9422 H         1 UNK         0.2990 
     95 H95        24.5620   26.5171    0.2222 H         1 UNK         0.0690 
     96 H96        24.8332   25.0926   -1.7917 H         1 UNK         0.0788 
     97 H97        26.5866   25.1164   -1.6094 H         1 UNK         0.0788 
     98 H98        25.7142   26.5972   -1.9834 H         1 UNK         0.0788 
     99 H99        25.7910   23.8842    0.3939 H         1 UNK         0.2993 
    100 H100       24.8181   23.3426    3.7853 H         1 UNK         0.0949 
    101 H101       23.8165   22.1081    1.1598 H         1 UNK         0.0767 
    102 H102       23.7339   21.3650    2.7578 H         1 UNK         0.0767 
    103 H103       22.7981   22.8084    2.4102 H         1 UNK         0.0767 
    104 H104       26.1503   21.6477    1.9322 H         1 UNK         0.3013 
    105 H105       27.3950   28.8020   -1.5730 H         1 UNK         0.3121 
    106 H106       25.7101   30.2169   -1.4602 H         1 UNK         0.0774 
    107 H107       25.6728   32.2859   -2.8004 H         1 UNK         0.0815 
    108 H108       27.4153   32.2419   -3.0073 H         1 UNK         0.0815 
    109 H109       26.4056   30.9929   -3.7354 H         1 UNK         0.0815 
    110 H110       26.9591   29.8873    0.7612 H         1 UNK         0.2987 
    111 H111       27.3948   30.5545    2.8273 H         1 UNK         0.0949 
    112 H112       25.6369   32.9760    2.1601 H         1 UNK         0.0806 
    113 H113       25.0556   31.3986    2.6915 H         1 UNK         0.0806 
    114 H114       26.0223   32.3903    3.7710 H         1 UNK         0.0806 
    115 H115       29.5966   30.8495    1.5282 H         1 UNK         0.3010 
    116 H116       30.7181   33.5004    1.4566 H         1 UNK         0.0829 
    117 H117       31.4727   31.6548   -0.0321 H         1 UNK         0.0813 
    118 H118       32.8172   32.2639    0.9159 H         1 UNK         0.0813 
    119 H119       32.0572   30.7411    1.3575 H         1 UNK         0.0813 
    120 H120       30.0865   31.5335    4.1119 H         1 UNK         0.3038 
    121 H121       30.6099   31.4586    6.2551 H         1 UNK         0.0769 
    122 H122       32.1546   34.0827    5.9362 H         1 UNK         0.0811 
    123 H123       30.4142   33.9647    6.1957 H         1 UNK         0.0811 
    124 H124       31.5302   33.4008    7.4277 H         1 UNK         0.0811 
    125 H125       32.3733   30.2937    4.2054 H         1 UNK         0.3204 
    126 H126       34.9873   29.9534    5.5304 H         1 UNK         0.0748 
    127 H127       35.3965   28.4760    3.5156 H         1 UNK         0.0771 
    128 H128       33.7416   28.7570    2.9903 H         1 UNK         0.0771 
    129 H129       34.8901   30.0882    3.0455 H         1 UNK         0.0771 
    130 H130       35.6900   27.5706    5.6563 H         1 UNK         0.2980 
    131 H131       35.6358   25.5711    6.5336 H         1 UNK         0.0545 
    132 H132       34.8252   28.0557    8.3282 H         1 UNK         0.3459 
    133 H133       34.4173   27.2389    9.8165 H         1 UNK         0.3459 
    134 H134       33.7144   24.0488    6.3635 H         1 UNK         0.0616 
    135 H135       32.6268   25.3664    6.0458 H         1 UNK         0.0616 
    136 H136       32.5092   26.6344    3.6064 H         1 UNK         0.0634 
    137 H137       31.6332   25.1442    3.8457 H         1 UNK         0.0634 
@<TRIPOS>BOND
     1    1    2 1    
     2    1   72 1    
     3    1   73 1    
     4    1   74 1    
     5    2    3 2    
     6    2    4 am   BACKBONE|DICT|INTERRES
     7    4    5 1    
     8    4   75 1    
     9    5    6 1    
    10    5   35 1    
    11    5   76 1    
    12    6    7 1    
    13    6   77 1    
    14    6   78 1    
    15    7    8 1    
    16    8    9 1    
    17    8   79 1    
    18    8   80 1    
    19    9   10 ar   
    20    9   14 ar   
    21   10   11 ar   
    22   10   81 1    
    23   11   12 ar   
    24   11   71 1    
    25   12   13 ar   
    26   12   82 1    
    27   13   14 ar   
    28   13   15 1    
    29   14   83 1    
    30   15   16 1    
    31   15   84 1    
    32   15   85 1    
    33   16   17 1    
    34   17   18 1    
    35   17   86 1    
    36   17   87 1    
    37   18   19 1    
    38   18   37 1    
    39   18   88 1    
    40   19   20 am   BACKBONE|DICT|INTERRES
    41   19   89 1    
    42   20   21 2    
    43   20   22 1    
    44   22   23 1    
    45   22   24 1    
    46   22   90 1    
    47   23   91 1    
    48   23   92 1    
    49   23   93 1    
    50   24   25 am   BACKBONE|DICT|INTERRES
    51   24   94 1    
    52   25   26 2    
    53   25   27 1    
    54   27   28 1    
    55   27   29 1    
    56   27   95 1    
    57   28   96 1    
    58   28   97 1    
    59   28   98 1    
    60   29   30 am   BACKBONE|DICT|INTERRES
    61   29   99 1    
    62   30   31 2    
    63   30   32 1    
    64   32   33 1    
    65   32   34 1    
    66   32  100 1    
    67   33  101 1    
    68   33  102 1    
    69   33  103 1    
    70   34   35 am   BACKBONE|DICT|INTERRES
    71   34  104 1    
    72   35   36 2    
    73   37   38 2    
    74   37   39 am   BACKBONE|DICT|INTERRES
    75   39   40 1    
    76   39  105 1    
    77   40   41 1    
    78   40   42 1    
    79   40  106 1    
    80   41  107 1    
    81   41  108 1    
    82   41  109 1    
    83   42   43 2    
    84   42   44 am   BACKBONE|DICT|INTERRES
    85   44   45 1    
    86   44  110 1    
    87   45   46 1    
    88   45   47 1    
    89   45  111 1    
    90   46  112 1    
    91   46  113 1    
    92   46  114 1    
    93   47   48 2    
    94   47   49 am   BACKBONE|DICT|INTERRES
    95   49   50 1    
    96   49  115 1    
    97   50   51 1    
    98   50   52 1    
    99   50  116 1    
   100   51  117 1    
   101   51  118 1    
   102   51  119 1    
   103   52   53 2    
   104   52   54 am   BACKBONE|DICT|INTERRES
   105   54   55 1    
   106   54  120 1    
   107   55   56 1    
   108   55   57 1    
   109   55  121 1    
   110   56  122 1    
   111   56  123 1    
   112   56  124 1    
   113   57   58 2    
   114   57   59 am   BACKBONE|DICT|INTERRES
   115   59   60 1    
   116   59  125 1    
   117   60   61 1    
   118   60   62 1    
   119   60  126 1    
   120   61  127 1    
   121   61  128 1    
   122   61  129 1    
   123   62   63 2    
   124   62   64 am   BACKBONE|DICT|INTERRES
   125   64   65 1    
   126   64  130 1    
   127   65   66 1    
   128   65   69 1    
   129   65  131 1    
   130   66   67 am   BACKBONE|DICT|INTERRES
   131   66   68 2    
   132   67  132 1    
   133   67  133 1    
   134   69   70 1    
   135   69  134 1    
   136   69  135 1    
   137   70   71 1    
   138   71  136 1    
   139   71  137 1    
@<TRIPOS>SUBSTRUCTURE
     1 UNK         1 GROUP             0       ****    0 ROOT    
