@<TRIPOS>MOLECULE
3R136
137   139    1
SMALL
USER_CHARGES


@<TRIPOS>ATOM
      1 CA         29.7574   27.4825    2.7885 C.3       0 UNK        -0.1979 
      2 C          29.2430   26.1460    3.2892 C.2       0 UNK         0.4864 
      3 O          28.7203   26.0638    4.4005 O.2       0 UNK        -0.5359 
      4 N          29.3552   25.1049    2.4562 N.am      1 UNK        -0.4318 
      5 CA         28.8495   23.7512    2.7100 C.3       1 UNK         0.0824 
      6 C6         29.6556   22.6834    1.9237 C.3       12 UNK        -0.0944 
      7 S7         29.7896   23.0016    0.1273 S.3       12 UNK        -0.2672 
      8 C8         31.5943   23.1523   -0.0890 C.3       12 UNK         0.0333 
      9 C9         32.1048   24.5094    0.3730 C.ar      12 UNK        -0.0807 
     10 C10        32.7292   24.6587    1.6151 C.ar      12 UNK        -0.0894 
     11 C11        33.1842   25.9137    2.0327 C.ar      12 UNK        -0.0804 
     12 C12        32.9830   27.0298    1.2119 C.ar      12 UNK        -0.0824 
     13 C13        32.3684   26.8894   -0.0369 C.ar      12 UNK        -0.0762 
     14 C14        31.9579   25.6213   -0.4583 C.ar      12 UNK        -0.0782 
     15 C15        32.1635   28.0970   -0.9448 C.3       12 UNK         0.0230 
     16 S16        30.5162   28.8549   -0.7434 S.3       12 UNK        -0.2608 
     17 C17        29.4253   27.5065   -1.3113 C.3       12 UNK        -0.0989 
     18 CA         27.9250   27.8750   -1.3983 C.3       5 UNK         0.0716 
     19 N          27.1498   26.7643   -1.9383 N.am      5 UNK        -0.4135 
     20 C          27.1046   26.3998   -3.2244 C.2       4 UNK         0.5031 
     21 O          27.6686   27.0169   -4.1291 O.2       4 UNK        -0.5229 
     22 CA         26.3249   25.1189   -3.5684 C.3       4 UNK         0.0329 
     23 CB         27.2907   23.9279   -3.6846 C.3       4 UNK        -0.2001 
     24 N          25.2891   24.7922   -2.5876 N.am      4 UNK        -0.4303 
     25 C          24.0941   25.3858   -2.4962 C.2       3 UNK         0.5044 
     26 O          23.7151   26.2807   -3.2521 O.2       3 UNK        -0.5152 
     27 CA         23.1672   24.9104   -1.3620 C.3       3 UNK         0.0319 
     28 CB         22.6518   23.4788   -1.6127 C.3       3 UNK        -0.2001 
     29 N          23.7462   25.0540   -0.0174 N.am      3 UNK        -0.4354 
     30 C          24.8109   24.4330    0.5117 C.2       2 UNK         0.4964 
     31 O          25.4765   23.5795   -0.0794 O.2       2 UNK        -0.5047 
     32 CA         25.1894   24.8762    1.9323 C.3       2 UNK         0.0288 
     33 CB         24.2959   24.2151    3.0024 C.3       2 UNK        -0.2113 
     34 N          26.6228   24.7110    2.2018 N.am      2 UNK        -0.4145 
     35 C          27.3166   23.6064    2.5257 C.2       1 UNK         0.5006 
     36 O          26.8039   22.5007    2.7121 O.2       1 UNK        -0.5103 
     37 C          27.3372   28.1989   -0.0176 C.2       5 UNK         0.5055 
     38 O          27.0284   27.2701    0.7338 O.2       5 UNK        -0.5220 
     39 N          27.2245   29.4945    0.2960 N.am      6 UNK        -0.4450 
     40 CA         26.7310   30.0100    1.5768 C.3       6 UNK         0.0367 
     41 CB         25.4918   30.8839    1.3147 C.3       6 UNK        -0.1929 
     42 C          27.8045   30.8003    2.3488 C.2       6 UNK         0.5070 
     43 O          27.5086   31.3090    3.4310 O.2       6 UNK        -0.5237 
     44 N          29.0323   30.8933    1.8152 N.am      7 UNK        -0.4739 
     45 CA         30.1602   31.6175    2.4121 C.3       7 UNK         0.0276 
     46 CB         31.1612   31.9945    1.3035 C.3       7 UNK        -0.1927 
     47 C          30.8234   30.8174    3.5496 C.2       7 UNK         0.5013 
     48 O          32.0059   30.4847    3.4636 O.2       7 UNK        -0.5193 
     49 N          30.0500   30.5212    4.6035 N.am      8 UNK        -0.4253 
     50 CA         30.4466   29.7134    5.7660 C.3       8 UNK         0.0242 
     51 CB         29.2530   29.5845    6.7243 C.3       8 UNK        -0.2000 
     52 C          31.6907   30.2269    6.5135 C.2       8 UNK         0.4948 
     53 O          32.4186   29.4243    7.0967 O.2       8 UNK        -0.5275 
     54 N          31.9459   31.5411    6.4415 N.am      9 UNK        -0.4246 
     55 CA         33.1515   32.1946    6.9565 C.3       9 UNK         0.0261 
     56 CB         33.0029   33.7173    6.8084 C.3       9 UNK        -0.1959 
     57 C          34.4564   31.7152    6.2904 C.2       9 UNK         0.5033 
     58 O          35.5061   31.7741    6.9325 O.2       9 UNK        -0.5390 
     59 N          34.3822   31.2305    5.0403 N.am      10 UNK        -0.4215 
     60 CA         35.5218   30.6643    4.3135 C.3       10 UNK         0.0240 
     61 CB         35.2134   30.6477    2.8069 C.3       10 UNK        -0.1982 
     62 C          35.9063   29.2546    4.7976 C.2       10 UNK         0.4970 
     63 O          37.0226   28.8171    4.5165 O.2       10 UNK        -0.4916 
     64 N          34.9948   28.5667    5.4994 N.am      11 UNK        -0.4279 
     65 CA         35.2083   27.2177    6.0443 C.3       11 UNK         0.1003 
     66 C          36.0237   27.1906    7.3703 C.2       11 UNK         0.5709 
     67 N          36.3477   28.3246    7.9824 N.am      11 UNK        -0.7358 
     68 O          36.3823   26.1165    7.8474 O.2       11 UNK        -0.4999 
     69 C69        33.8758   26.4305    6.1876 C.3       12 UNK        -0.0954 
     70 S70        32.7836   26.4325    4.7211 S.3       12 UNK        -0.2268 
     71 C71        33.9222   26.0562    3.3554 C.3       12 UNK         0.0203 
     72 H72        29.0416   28.2633    3.0337 H         1 UNK         0.0888 
     73 H73        29.8973   27.4764    1.7105 H         1 UNK         0.0888 
     74 H74        30.7110   27.7304    3.2482 H         1 UNK         0.0888 
     75 H75        29.8173   25.2216    1.5647 H         1 UNK         0.3017 
     76 H76        29.0185   23.5418    3.7687 H         1 UNK         0.0873 
     77 H77        29.2303   21.6882    2.0653 H         1 UNK         0.0745 
     78 H78        30.6576   22.6204    2.3490 H         1 UNK         0.0745 
     79 H79        32.1018   22.3428    0.4380 H         1 UNK         0.0705 
     80 H80        31.8313   23.0180   -1.1455 H         1 UNK         0.0705 
     81 H81        32.8687   23.7984    2.2555 H         1 UNK         0.1334 
     82 H82        33.3142   28.0052    1.5413 H         1 UNK         0.1417 
     83 H83        31.4975   25.4997   -1.4293 H         1 UNK         0.1562 
     84 H84        32.3049   27.8110   -1.9883 H         1 UNK         0.0748 
     85 H85        32.9219   28.8525   -0.7339 H         1 UNK         0.0748 
     86 H86        29.5393   26.6504   -0.6460 H         1 UNK         0.0940 
     87 H87        29.7848   27.1843   -2.2899 H         1 UNK         0.0940 
     88 H88        27.7967   28.7400   -2.0527 H         1 UNK         0.0703 
     89 H89        26.6478   26.2266   -1.2444 H         1 UNK         0.3081 
     90 H90        25.8492   25.2714   -4.5396 H         1 UNK         0.0719 
     91 H91        27.7885   23.7172   -2.7366 H         1 UNK         0.0809 
     92 H92        26.7690   23.0234   -3.9975 H         1 UNK         0.0809 
     93 H93        28.0678   24.1248   -4.4246 H         1 UNK         0.0809 
     94 H94        25.5173   24.1017   -1.8752 H         1 UNK         0.2990 
     95 H95        22.2975   25.5696   -1.3767 H         1 UNK         0.0690 
     96 H96        21.9272   23.1821   -0.8543 H         1 UNK         0.0788 
     97 H97        23.4558   22.7423   -1.6111 H         1 UNK         0.0788 
     98 H98        22.1535   23.4099   -2.5806 H         1 UNK         0.0788 
     99 H99        23.2893   25.7503    0.5560 H         1 UNK         0.2993 
    100 H100       25.0212   25.9530    1.9887 H         1 UNK         0.0949 
    101 H101       23.2573   24.5279    2.8888 H         1 UNK         0.0767 
    102 H102       24.3089   23.1271    2.9320 H         1 UNK         0.0767 
    103 H103       24.6090   24.4924    4.0090 H         1 UNK         0.0767 
    104 H104       27.1620   25.5495    2.0191 H         1 UNK         0.3013 
    105 H105       27.5040   30.1865   -0.3863 H         1 UNK         0.3121 
    106 H106       26.4307   29.1860    2.2277 H         1 UNK         0.0774 
    107 H107       24.7091   30.3181    0.8091 H         1 UNK         0.0815 
    108 H108       25.7316   31.7507    0.6977 H         1 UNK         0.0815 
    109 H109       25.0670   31.2553    2.2484 H         1 UNK         0.0815 
    110 H110       29.2298   30.3916    0.9606 H         1 UNK         0.2987 
    111 H111       29.7881   32.5477    2.8476 H         1 UNK         0.0949 
    112 H112       31.6139   31.1132    0.8486 H         1 UNK         0.0806 
    113 H113       30.6832   32.5737    0.5135 H         1 UNK         0.0806 
    114 H114       31.9737   32.6025    1.7037 H         1 UNK         0.0806 
    115 H115       29.0811   30.8235    4.5597 H         1 UNK         0.3010 
    116 H116       30.6931   28.7156    5.3997 H         1 UNK         0.0829 
    117 H117       28.4040   29.1056    6.2355 H         1 UNK         0.0813 
    118 H118       29.5117   28.9734    7.5903 H         1 UNK         0.0813 
    119 H119       28.9253   30.5565    7.0950 H         1 UNK         0.0813 
    120 H120       31.2879   32.1241    5.9454 H         1 UNK         0.3038 
    121 H121       33.2247   31.9583    8.0202 H         1 UNK         0.0769 
    122 H122       32.9009   34.0140    5.7636 H         1 UNK         0.0811 
    123 H123       33.8754   34.2349    7.2099 H         1 UNK         0.0811 
    124 H124       32.1325   34.0871    7.3508 H         1 UNK         0.0811 
    125 H125       33.4778   31.1594    4.5801 H         1 UNK         0.3204 
    126 H126       36.3863   31.3125    4.4727 H         1 UNK         0.0748 
    127 H127       34.9299   31.6365    2.4459 H         1 UNK         0.0771 
    128 H128       36.0862   30.3308    2.2345 H         1 UNK         0.0771 
    129 H129       34.4035   29.9583    2.5679 H         1 UNK         0.0771 
    130 H130       34.1054   28.9934    5.7257 H         1 UNK         0.2980 
    131 H131       35.8257   26.6689    5.3316 H         1 UNK         0.0545 
    132 H132       36.8806   28.2889    8.8369 H         1 UNK         0.3459 
    133 H133       36.0617   29.2134    7.6012 H         1 UNK         0.3459 
    134 H134       34.0823   25.3886    6.4385 H         1 UNK         0.0616 
    135 H135       33.2943   26.8290    7.0207 H         1 UNK         0.0616 
    136 H136       34.4676   25.1392    3.5833 H         1 UNK         0.0634 
    137 H137       34.6668   26.8473    3.2658 H         1 UNK         0.0634 
@<TRIPOS>BOND
     1    1    2 1    
     2    1   72 1    
     3    1   73 1    
     4    1   74 1    
     5    2    3 2    
     6    2    4 am   BACKBONE|DICT|INTERRES
     7    4    5 1    
     8    4   75 1    
     9    5    6 1    
    10    5   35 1    
    11    5   76 1    
    12    6    7 1    
    13    6   77 1    
    14    6   78 1    
    15    7    8 1    
    16    8    9 1    
    17    8   79 1    
    18    8   80 1    
    19    9   10 ar   
    20    9   14 ar   
    21   10   11 ar   
    22   10   81 1    
    23   11   12 ar   
    24   11   71 1    
    25   12   13 ar   
    26   12   82 1    
    27   13   14 ar   
    28   13   15 1    
    29   14   83 1    
    30   15   16 1    
    31   15   84 1    
    32   15   85 1    
    33   16   17 1    
    34   17   18 1    
    35   17   86 1    
    36   17   87 1    
    37   18   19 1    
    38   18   37 1    
    39   18   88 1    
    40   19   20 am   BACKBONE|DICT|INTERRES
    41   19   89 1    
    42   20   21 2    
    43   20   22 1    
    44   22   23 1    
    45   22   24 1    
    46   22   90 1    
    47   23   91 1    
    48   23   92 1    
    49   23   93 1    
    50   24   25 am   BACKBONE|DICT|INTERRES
    51   24   94 1    
    52   25   26 2    
    53   25   27 1    
    54   27   28 1    
    55   27   29 1    
    56   27   95 1    
    57   28   96 1    
    58   28   97 1    
    59   28   98 1    
    60   29   30 am   BACKBONE|DICT|INTERRES
    61   29   99 1    
    62   30   31 2    
    63   30   32 1    
    64   32   33 1    
    65   32   34 1    
    66   32  100 1    
    67   33  101 1    
    68   33  102 1    
    69   33  103 1    
    70   34   35 am   BACKBONE|DICT|INTERRES
    71   34  104 1    
    72   35   36 2    
    73   37   38 2    
    74   37   39 am   BACKBONE|DICT|INTERRES
    75   39   40 1    
    76   39  105 1    
    77   40   41 1    
    78   40   42 1    
    79   40  106 1    
    80   41  107 1    
    81   41  108 1    
    82   41  109 1    
    83   42   43 2    
    84   42   44 am   BACKBONE|DICT|INTERRES
    85   44   45 1    
    86   44  110 1    
    87   45   46 1    
    88   45   47 1    
    89   45  111 1    
    90   46  112 1    
    91   46  113 1    
    92   46  114 1    
    93   47   48 2    
    94   47   49 am   BACKBONE|DICT|INTERRES
    95   49   50 1    
    96   49  115 1    
    97   50   51 1    
    98   50   52 1    
    99   50  116 1    
   100   51  117 1    
   101   51  118 1    
   102   51  119 1    
   103   52   53 2    
   104   52   54 am   BACKBONE|DICT|INTERRES
   105   54   55 1    
   106   54  120 1    
   107   55   56 1    
   108   55   57 1    
   109   55  121 1    
   110   56  122 1    
   111   56  123 1    
   112   56  124 1    
   113   57   58 2    
   114   57   59 am   BACKBONE|DICT|INTERRES
   115   59   60 1    
   116   59  125 1    
   117   60   61 1    
   118   60   62 1    
   119   60  126 1    
   120   61  127 1    
   121   61  128 1    
   122   61  129 1    
   123   62   63 2    
   124   62   64 am   BACKBONE|DICT|INTERRES
   125   64   65 1    
   126   64  130 1    
   127   65   66 1    
   128   65   69 1    
   129   65  131 1    
   130   66   67 am   BACKBONE|DICT|INTERRES
   131   66   68 2    
   132   67  132 1    
   133   67  133 1    
   134   69   70 1    
   135   69  134 1    
   136   69  135 1    
   137   70   71 1    
   138   71  136 1    
   139   71  137 1    
@<TRIPOS>SUBSTRUCTURE
     1 UNK         1 GROUP             0       ****    0 ROOT    
