@<TRIPOS>MOLECULE
3R136
137   139    1
SMALL
USER_CHARGES


@<TRIPOS>ATOM
      1 CA         27.4394   18.7224   -2.6868 C.3       0 UNK        -0.1979 
      2 C          27.5456   19.8924   -1.7202 C.2       0 UNK         0.4864 
      3 O          27.0892   19.7828   -0.5807 O.2       0 UNK        -0.5359 
      4 N          28.1321   21.0103   -2.1734 N.am      1 UNK        -0.4318 
      5 CA         28.3864   22.2682   -1.4505 C.3       1 UNK         0.0824 
      6 C6         29.2696   22.1116   -0.1858 C.3       12 UNK        -0.0944 
      7 S7         30.9439   21.4844   -0.5520 S.3       12 UNK        -0.2672 
      8 C8         31.9436   23.0169   -0.5041 C.3       12 UNK         0.0333 
      9 C9         32.2406   23.5979    0.8836 C.ar      12 UNK        -0.0807 
     10 C10        33.2344   24.5781    0.9943 C.ar      12 UNK        -0.0894 
     11 C11        33.5394   25.1531    2.2323 C.ar      12 UNK        -0.0804 
     12 C12        32.8284   24.7629    3.3684 C.ar      12 UNK        -0.0824 
     13 C13        31.8170   23.8082    3.2732 C.ar      12 UNK        -0.0762 
     14 C14        31.5481   23.2109    2.0396 C.ar      12 UNK        -0.0782 
     15 C15        30.9921   23.4307    4.4917 C.3       12 UNK         0.0230 
     16 S16        29.3081   24.1088    4.3606 S.3       12 UNK        -0.2608 
     17 C17        29.5041   25.8121    4.9946 C.3       12 UNK        -0.0989 
     18 CA         29.9443   26.8812    3.9542 C.3       5 UNK         0.0716 
     19 N          29.3148   26.6972    2.6419 N.am      5 UNK        -0.4135 
     20 C          29.5187   27.4650    1.5618 C.2       4 UNK         0.5031 
     21 O          30.2756   28.4338    1.5365 O.2       4 UNK        -0.5229 
     22 CA         28.6854   27.1526    0.3074 C.3       4 UNK         0.0329 
     23 CB         29.4675   26.2062   -0.6140 C.3       4 UNK        -0.2001 
     24 N          27.3257   26.6339    0.5450 N.am      4 UNK        -0.4303 
     25 C          26.4140   27.1680    1.3792 C.2       3 UNK         0.5044 
     26 O          26.6616   28.0975    2.1496 O.2       3 UNK        -0.5152 
     27 CA         24.9772   26.6143    1.3631 C.3       3 UNK         0.0319 
     28 CB         24.0088   27.6757    0.8147 C.3       3 UNK        -0.2001 
     29 N          24.8062   25.3807    0.5948 N.am      3 UNK        -0.4354 
     30 C          25.1598   24.1583    1.0112 C.2       2 UNK         0.4964 
     31 O          25.6989   23.9350    2.0955 O.2       2 UNK        -0.5047 
     32 CA         24.8845   22.9815    0.0532 C.3       2 UNK         0.0288 
     33 CB         23.9205   23.3174   -1.1087 C.3       2 UNK        -0.2113 
     34 N          26.1333   22.4158   -0.4644 N.am      2 UNK        -0.4145 
     35 C          27.1089   23.0649   -1.1142 C.2       1 UNK         0.5006 
     36 O          27.0437   24.2545   -1.4295 O.2       1 UNK        -0.5103 
     37 C          29.7160   28.2914    4.5464 C.2       5 UNK         0.5055 
     38 O          30.6031   28.8088    5.2287 O.2       5 UNK        -0.5220 
     39 N          28.5321   28.8666    4.2874 N.am      6 UNK        -0.4450 
     40 CA         28.1096   30.1836    4.7633 C.3       6 UNK         0.0367 
     41 CB         26.7729   30.0342    5.5082 C.3       6 UNK        -0.1929 
     42 C          27.9644   31.2006    3.6195 C.2       6 UNK         0.5070 
     43 O          28.0877   32.3972    3.8781 O.2       6 UNK        -0.5237 
     44 N          27.6839   30.7343    2.3926 N.am      7 UNK        -0.4739 
     45 CA         27.5185   31.5805    1.2057 C.3       7 UNK         0.0276 
     46 CB         26.7394   30.8134    0.1258 C.3       7 UNK        -0.1927 
     47 C          28.8472   32.1221    0.6479 C.2       7 UNK         0.5013 
     48 O          28.8395   33.1850    0.0239 O.2       7 UNK        -0.5193 
     49 N          29.9572   31.4071    0.8853 N.am      8 UNK        -0.4253 
     50 CA         31.3218   31.8865    0.6435 C.3       8 UNK         0.0242 
     51 CB         32.2475   30.6742    0.4306 C.3       8 UNK        -0.2000 
     52 C          31.7976   32.7833    1.8053 C.2       8 UNK         0.4948 
     53 O          30.9915   33.2107    2.6346 O.2       8 UNK        -0.5275 
     54 N          33.1095   33.0422    1.8863 N.am      9 UNK        -0.4246 
     55 CA         33.7572   33.8513    2.9298 C.3       9 UNK         0.0261 
     56 CB         35.1466   34.2858    2.4248 C.3       9 UNK        -0.1959 
     57 C          33.8190   33.1552    4.3114 C.2       9 UNK         0.5033 
     58 O          34.8835   33.1240    4.9321 O.2       9 UNK        -0.5390 
     59 N          32.6791   32.6049    4.7574 N.am      10 UNK        -0.4215 
     60 CA         32.4400   31.8713    6.0081 C.3       10 UNK         0.0240 
     61 CB         32.4163   32.8509    7.2002 C.3       10 UNK        -0.1982 
     62 C          33.4123   30.6926    6.2205 C.2       10 UNK         0.4970 
     63 O          33.9145   30.5000    7.3302 O.2       10 UNK        -0.4916 
     64 N          33.6882   29.9486    5.1417 N.am      11 UNK        -0.4279 
     65 CA         34.6690   28.8557    5.1164 C.3       11 UNK         0.1003 
     66 C          34.2356   27.5538    5.8534 C.2       11 UNK         0.5709 
     67 N          32.9695   27.3792    6.2148 N.am      11 UNK        -0.7358 
     68 O          35.0717   26.6925    6.1150 O.2       11 UNK        -0.4999 
     69 C69        35.1957   28.6044    3.6783 C.3       12 UNK        -0.0954 
     70 S70        33.9628   27.8646    2.5517 S.3       12 UNK        -0.2268 
     71 C71        34.6436   26.1870    2.3622 C.3       12 UNK         0.0203 
     72 H72        27.8787   18.9524   -3.6573 H         1 UNK         0.0888 
     73 H73        27.9548   17.8530   -2.2794 H         1 UNK         0.0888 
     74 H74        26.3938   18.4576   -2.8416 H         1 UNK         0.0888 
     75 H75        28.4553   21.0168   -3.1310 H         1 UNK         0.3017 
     76 H76        28.9418   22.8921   -2.1531 H         1 UNK         0.0873 
     77 H77        29.3548   23.0652    0.3337 H         1 UNK         0.0745 
     78 H78        28.8056   21.4341    0.5325 H         1 UNK         0.0745 
     79 H79        32.8916   22.7992   -0.9984 H         1 UNK         0.0705 
     80 H80        31.4527   23.7786   -1.1111 H         1 UNK         0.0705 
     81 H81        33.7784   24.8911    0.1133 H         1 UNK         0.1334 
     82 H82        33.0523   25.2189    4.3227 H         1 UNK         0.1417 
     83 H83        30.7756   22.4585    2.0001 H         1 UNK         0.1562 
     84 H84        31.4649   23.7689    5.4150 H         1 UNK         0.0748 
     85 H85        30.9303   22.3436    4.5596 H         1 UNK         0.0748 
     86 H86        28.5349   26.0784    5.4222 H         1 UNK         0.0940 
     87 H87        30.1988   25.8020    5.8365 H         1 UNK         0.0940 
     88 H88        31.0182   26.7817    3.7920 H         1 UNK         0.0703 
     89 H89        28.6745   25.9199    2.5684 H         1 UNK         0.3081 
     90 H90        28.5684   28.0945   -0.2283 H         1 UNK         0.0719 
     91 H91        29.5822   25.2220   -0.1658 H         1 UNK         0.0809 
     92 H92        28.9749   26.0888   -1.5789 H         1 UNK         0.0809 
     93 H93        30.4698   26.5900   -0.8106 H         1 UNK         0.0809 
     94 H94        27.0336   25.8676   -0.0524 H         1 UNK         0.2990 
     95 H95        24.7033   26.4125    2.4008 H         1 UNK         0.0690 
     96 H96        22.9752   27.3321    0.8596 H         1 UNK         0.0788 
     97 H97        24.2345   27.9321   -0.2212 H         1 UNK         0.0788 
     98 H98        24.0655   28.5965    1.3973 H         1 UNK         0.0788 
     99 H99        24.4015   25.4701   -0.3263 H         1 UNK         0.2993 
    100 H100       24.4162   22.2026    0.6570 H         1 UNK         0.0949 
    101 H101       23.6891   22.4239   -1.6890 H         1 UNK         0.0767 
    102 H102       22.9721   23.7066   -0.7353 H         1 UNK         0.0767 
    103 H103       24.3363   24.0529   -1.7982 H         1 UNK         0.0767 
    104 H104       26.3046   21.4324   -0.2609 H         1 UNK         0.3013 
    105 H105       27.8813   28.3820    3.6762 H         1 UNK         0.3121 
    106 H106       28.8451   30.5875    5.4624 H         1 UNK         0.0774 
    107 H107       25.9918   29.6363    4.8586 H         1 UNK         0.0815 
    108 H108       26.4259   30.9970    5.8859 H         1 UNK         0.0815 
    109 H109       26.8699   29.3665    6.3643 H         1 UNK         0.0815 
    110 H110       27.5011   29.7418    2.2718 H         1 UNK         0.2987 
    111 H111       26.9179   32.4465    1.4935 H         1 UNK         0.0949 
    112 H112       27.2896   29.9454   -0.2319 H         1 UNK         0.0806 
    113 H113       25.7753   30.4692    0.5004 H         1 UNK         0.0806 
    114 H114       26.5426   31.4505   -0.7375 H         1 UNK         0.0806 
    115 H115       29.8742   30.5310    1.3889 H         1 UNK         0.3010 
    116 H116       31.3318   32.4900   -0.2664 H         1 UNK         0.0829 
    117 H117       31.8405   29.9914   -0.3156 H         1 UNK         0.0813 
    118 H118       33.2346   30.9742    0.0783 H         1 UNK         0.0813 
    119 H119       32.3834   30.1091    1.3531 H         1 UNK         0.0813 
    120 H120       33.7221   32.6365    1.1936 H         1 UNK         0.3038 
    121 H121       33.1638   34.7577    3.0688 H         1 UNK         0.0769 
    122 H122       35.8062   33.4302    2.2742 H         1 UNK         0.0811 
    123 H123       35.6335   34.9514    3.1390 H         1 UNK         0.0811 
    124 H124       35.0761   34.8274    1.4813 H         1 UNK         0.0811 
    125 H125       31.8704   32.7183    4.1459 H         1 UNK         0.3204 
    126 H126       31.4455   31.4310    5.9207 H         1 UNK         0.0748 
    127 H127       32.1351   32.3410    8.1225 H         1 UNK         0.0771 
    128 H128       33.3924   33.3092    7.3638 H         1 UNK         0.0771 
    129 H129       31.6929   33.6507    7.0411 H         1 UNK         0.0771 
    130 H130       33.2044   30.1339    4.2765 H         1 UNK         0.2980 
    131 H131       35.5299   29.2157    5.6832 H         1 UNK         0.0545 
    132 H132       32.7154   26.5496    6.7242 H         1 UNK         0.3459 
    133 H133       32.2621   28.0644    5.9694 H         1 UNK         0.3459 
    134 H134       35.5217   29.5482    3.2384 H         1 UNK         0.0616 
    135 H135       36.0924   27.9838    3.7114 H         1 UNK         0.0616 
    136 H136       35.3058   26.1657    1.4954 H         1 UNK         0.0634 
    137 H137       35.2572   25.9252    3.2253 H         1 UNK         0.0634 
@<TRIPOS>BOND
     1    1    2 1    
     2    1   72 1    
     3    1   73 1    
     4    1   74 1    
     5    2    3 2    
     6    2    4 am   BACKBONE|DICT|INTERRES
     7    4    5 1    
     8    4   75 1    
     9    5    6 1    
    10    5   35 1    
    11    5   76 1    
    12    6    7 1    
    13    6   77 1    
    14    6   78 1    
    15    7    8 1    
    16    8    9 1    
    17    8   79 1    
    18    8   80 1    
    19    9   10 ar   
    20    9   14 ar   
    21   10   11 ar   
    22   10   81 1    
    23   11   12 ar   
    24   11   71 1    
    25   12   13 ar   
    26   12   82 1    
    27   13   14 ar   
    28   13   15 1    
    29   14   83 1    
    30   15   16 1    
    31   15   84 1    
    32   15   85 1    
    33   16   17 1    
    34   17   18 1    
    35   17   86 1    
    36   17   87 1    
    37   18   19 1    
    38   18   37 1    
    39   18   88 1    
    40   19   20 am   BACKBONE|DICT|INTERRES
    41   19   89 1    
    42   20   21 2    
    43   20   22 1    
    44   22   23 1    
    45   22   24 1    
    46   22   90 1    
    47   23   91 1    
    48   23   92 1    
    49   23   93 1    
    50   24   25 am   BACKBONE|DICT|INTERRES
    51   24   94 1    
    52   25   26 2    
    53   25   27 1    
    54   27   28 1    
    55   27   29 1    
    56   27   95 1    
    57   28   96 1    
    58   28   97 1    
    59   28   98 1    
    60   29   30 am   BACKBONE|DICT|INTERRES
    61   29   99 1    
    62   30   31 2    
    63   30   32 1    
    64   32   33 1    
    65   32   34 1    
    66   32  100 1    
    67   33  101 1    
    68   33  102 1    
    69   33  103 1    
    70   34   35 am   BACKBONE|DICT|INTERRES
    71   34  104 1    
    72   35   36 2    
    73   37   38 2    
    74   37   39 am   BACKBONE|DICT|INTERRES
    75   39   40 1    
    76   39  105 1    
    77   40   41 1    
    78   40   42 1    
    79   40  106 1    
    80   41  107 1    
    81   41  108 1    
    82   41  109 1    
    83   42   43 2    
    84   42   44 am   BACKBONE|DICT|INTERRES
    85   44   45 1    
    86   44  110 1    
    87   45   46 1    
    88   45   47 1    
    89   45  111 1    
    90   46  112 1    
    91   46  113 1    
    92   46  114 1    
    93   47   48 2    
    94   47   49 am   BACKBONE|DICT|INTERRES
    95   49   50 1    
    96   49  115 1    
    97   50   51 1    
    98   50   52 1    
    99   50  116 1    
   100   51  117 1    
   101   51  118 1    
   102   51  119 1    
   103   52   53 2    
   104   52   54 am   BACKBONE|DICT|INTERRES
   105   54   55 1    
   106   54  120 1    
   107   55   56 1    
   108   55   57 1    
   109   55  121 1    
   110   56  122 1    
   111   56  123 1    
   112   56  124 1    
   113   57   58 2    
   114   57   59 am   BACKBONE|DICT|INTERRES
   115   59   60 1    
   116   59  125 1    
   117   60   61 1    
   118   60   62 1    
   119   60  126 1    
   120   61  127 1    
   121   61  128 1    
   122   61  129 1    
   123   62   63 2    
   124   62   64 am   BACKBONE|DICT|INTERRES
   125   64   65 1    
   126   64  130 1    
   127   65   66 1    
   128   65   69 1    
   129   65  131 1    
   130   66   67 am   BACKBONE|DICT|INTERRES
   131   66   68 2    
   132   67  132 1    
   133   67  133 1    
   134   69   70 1    
   135   69  134 1    
   136   69  135 1    
   137   70   71 1    
   138   71  136 1    
   139   71  137 1    
@<TRIPOS>SUBSTRUCTURE
     1 UNK         1 GROUP             0       ****    0 ROOT    
