@<TRIPOS>MOLECULE
3R136
137   139    1
SMALL
USER_CHARGES


@<TRIPOS>ATOM
      1 CA         34.8451   20.0281    0.0323 C.3       0 UNK        -0.1979 
      2 C          33.7548   20.9328    0.5878 C.2       0 UNK         0.4864 
      3 O          34.0166   21.7114    1.5049 O.2       0 UNK        -0.5359 
      4 N          32.5348   20.8297    0.0443 N.am      1 UNK        -0.4318 
      5 CA         31.3813   21.6581    0.4037 C.3       1 UNK         0.0824 
      6 C6         30.0718   21.0242   -0.1336 C.3       12 UNK        -0.0944 
      7 S7         28.5353   21.9088    0.3098 S.3       12 UNK        -0.2672 
      8 C8         28.0811   21.1521    1.9023 C.3       12 UNK         0.0333 
      9 C9         28.3005   22.1360    3.0395 C.ar      12 UNK        -0.0807 
     10 C10        29.5123   22.1567    3.7349 C.ar      12 UNK        -0.0894 
     11 C11        29.7368   23.1021    4.7396 C.ar      12 UNK        -0.0804 
     12 C12        28.7211   24.0003    5.0798 C.ar      12 UNK        -0.0824 
     13 C13        27.4943   23.9710    4.4096 C.ar      12 UNK        -0.0762 
     14 C14        27.2923   23.0414    3.3854 C.ar      12 UNK        -0.0782 
     15 C15        26.3874   24.9445    4.7898 C.3       12 UNK         0.0230 
     16 S16        26.3122   26.3661    3.6564 S.3       12 UNK        -0.2608 
     17 C17        27.9180   27.1675    3.9972 C.3       12 UNK        -0.0989 
     18 CA         28.1099   28.5609    3.3457 C.3       5 UNK         0.0716 
     19 N          27.6993   28.5880    1.9428 N.am      5 UNK        -0.4135 
     20 C          27.8675   29.5976    1.0793 C.2       4 UNK         0.5031 
     21 O          28.3751   30.6826    1.3805 O.2       4 UNK        -0.5229 
     22 CA         27.4192   29.3393   -0.3716 C.3       4 UNK         0.0329 
     23 CB         27.9733   30.3924   -1.3488 C.3       4 UNK        -0.2001 
     24 N          27.8462   28.0122   -0.8187 N.am      4 UNK        -0.4303 
     25 C          27.1514   26.8764   -0.6927 C.2       3 UNK         0.5044 
     26 O          26.0161   26.8245   -0.2212 O.2       3 UNK        -0.5152 
     27 CA         27.8574   25.5743   -1.1106 C.3       3 UNK         0.0319 
     28 CB         28.0572   25.4980   -2.6370 C.3       3 UNK        -0.2001 
     29 N          29.1105   25.3181   -0.3851 N.am      3 UNK        -0.4354 
     30 C          30.2591   26.0136   -0.4106 C.2       2 UNK         0.4964 
     31 O          30.4394   27.0239   -1.0913 O.2       2 UNK        -0.5047 
     32 CA         31.4035   25.5122    0.4868 C.3       2 UNK         0.0288 
     33 CB         31.4403   26.3018    1.8045 C.3       2 UNK        -0.2113 
     34 N          31.3273   24.0809    0.7897 N.am      2 UNK        -0.4145 
     35 C          31.5867   23.1050   -0.0917 C.2       1 UNK         0.5006 
     36 O          31.9524   23.3048   -1.2533 O.2       1 UNK        -0.5103 
     37 C          27.4652   29.7029    4.1566 C.2       5 UNK         0.5055 
     38 O          26.2454   29.7244    4.3292 O.2       5 UNK        -0.5220 
     39 N          28.3100   30.6489    4.5900 N.am      6 UNK        -0.4450 
     40 CA         28.0016   31.8979    5.2978 C.3       6 UNK         0.0367 
     41 CB         27.2594   31.6324    6.6246 C.3       6 UNK        -0.1929 
     42 C          27.2906   32.9611    4.4349 C.2       6 UNK         0.5070 
     43 O          26.9785   34.0341    4.9534 O.2       6 UNK        -0.5237 
     44 N          27.0720   32.6790    3.1438 N.am      7 UNK        -0.4739 
     45 CA         26.5249   33.6166    2.1636 C.3       7 UNK         0.0276 
     46 CB         25.5598   32.8779    1.2215 C.3       7 UNK        -0.1927 
     47 C          27.6559   34.2903    1.3751 C.2       7 UNK         0.5013 
     48 O          27.6159   35.5070    1.1874 O.2       7 UNK        -0.5193 
     49 N          28.6476   33.4973    0.9464 N.am      8 UNK        -0.4253 
     50 CA         29.8266   33.9650    0.2115 C.3       8 UNK         0.0242 
     51 CB         29.5092   34.0379   -1.2946 C.3       8 UNK        -0.2000 
     52 C          31.0868   33.1195    0.4669 C.2       8 UNK         0.4948 
     53 O          32.1689   33.5468    0.0608 O.2       8 UNK        -0.5275 
     54 N          30.9552   31.9528    1.1103 N.am      9 UNK        -0.4246 
     55 CA         32.0423   31.0189    1.3937 C.3       9 UNK         0.0261 
     56 CB         32.0422   29.9269    0.3074 C.3       9 UNK        -0.1959 
     57 C          31.8572   30.4166    2.7929 C.2       9 UNK         0.5033 
     58 O          30.8274   30.6417    3.4334 O.2       9 UNK        -0.5390 
     59 N          32.8486   29.6418    3.2388 N.am      10 UNK        -0.4215 
     60 CA         32.8277   28.8610    4.4718 C.3       10 UNK         0.0240 
     61 CB         33.1350   29.7576    5.6855 C.3       10 UNK        -0.1982 
     62 C          33.8601   27.7375    4.3347 C.2       10 UNK         0.4970 
     63 O          34.8513   27.9120    3.6202 O.2       10 UNK        -0.4916 
     64 N          33.6051   26.6100    5.0054 N.am      11 UNK        -0.4279 
     65 CA         34.4915   25.4366    5.0193 C.3       11 UNK         0.1003 
     66 C          35.7480   25.6594    5.9038 C.2       11 UNK         0.5709 
     67 N          36.8592   25.0147    5.5751 N.am      11 UNK        -0.7358 
     68 O          35.7162   26.3783    6.9016 O.2       11 UNK        -0.4999 
     69 C69        33.7347   24.1498    5.4402 C.3       12 UNK        -0.0954 
     70 S70        32.3641   23.7708    4.2995 S.3       12 UNK        -0.2268 
     71 C71        31.0844   23.1667    5.4403 C.3       12 UNK         0.0203 
     72 H72        34.4741   19.3831   -0.7642 H         1 UNK         0.0888 
     73 H73        35.6610   20.6281   -0.3698 H         1 UNK         0.0888 
     74 H74        35.2453   19.3941    0.8230 H         1 UNK         0.0888 
     75 H75        32.3922   20.1931   -0.7267 H         1 UNK         0.3017 
     76 H76        31.3286   21.6745    1.4925 H         1 UNK         0.0873 
     77 H77        30.1084   20.9674   -1.2234 H         1 UNK         0.0745 
     78 H78        29.9909   19.9909    0.2071 H         1 UNK         0.0745 
     79 H79        28.6459   20.2353    2.0761 H         1 UNK         0.0705 
     80 H80        27.0312   20.8573    1.8647 H         1 UNK         0.0705 
     81 H81        30.2931   21.4530    3.4836 H         1 UNK         0.1334 
     82 H82        28.8874   24.7292    5.8612 H         1 UNK         0.1417 
     83 H83        26.3520   23.0304    2.8504 H         1 UNK         0.1562 
     84 H84        26.5205   25.3014    5.8123 H         1 UNK         0.0748 
     85 H85        25.4260   24.4289    4.7721 H         1 UNK         0.0748 
     86 H86        28.6918   26.4972    3.6246 H         1 UNK         0.0940 
     87 H87        28.0747   27.2205    5.0766 H         1 UNK         0.0940 
     88 H88        29.1864   28.7321    3.3361 H         1 UNK         0.0703 
     89 H89        27.2003   27.7685    1.6238 H         1 UNK         0.3081 
     90 H90        26.3293   29.4006   -0.3913 H         1 UNK         0.0719 
     91 H91        29.0635   30.4289   -1.3268 H         1 UNK         0.0809 
     92 H92        27.6657   30.1832   -2.3734 H         1 UNK         0.0809 
     93 H93        27.6054   31.3883   -1.1015 H         1 UNK         0.0809 
     94 H94        28.8118   27.9214   -1.1282 H         1 UNK         0.2990 
     95 H95        27.1902   24.7562   -0.8335 H         1 UNK         0.0690 
     96 H96        28.4803   24.5371   -2.9301 H         1 UNK         0.0788 
     97 H97        28.7195   26.2808   -3.0076 H         1 UNK         0.0788 
     98 H98        27.1055   25.6059   -3.1587 H         1 UNK         0.0788 
     99 H99        29.0826   24.5086    0.2204 H         1 UNK         0.2993 
    100 H100       32.3358   25.7014   -0.0502 H         1 UNK         0.0949 
    101 H101       31.3971   27.3766    1.6305 H         1 UNK         0.0767 
    102 H102       30.6066   26.0408    2.4548 H         1 UNK         0.0767 
    103 H103       32.3629   26.1002    2.3471 H         1 UNK         0.0767 
    104 H104       31.0594   23.8318    1.7319 H         1 UNK         0.3013 
    105 H105       29.2826   30.5764    4.2801 H         1 UNK         0.3121 
    106 H106       28.9715   32.3293    5.5498 H         1 UNK         0.0774 
    107 H107       27.1866   32.5438    7.2192 H         1 UNK         0.0815 
    108 H108       26.2425   31.2761    6.4588 H         1 UNK         0.0815 
    109 H109       27.7816   30.8927    7.2311 H         1 UNK         0.0815 
    110 H110       27.3959   31.7869    2.7880 H         1 UNK         0.2987 
    111 H111       25.9589   34.4008    2.6719 H         1 UNK         0.0949 
    112 H112       25.1322   33.5629    0.4881 H         1 UNK         0.0806 
    113 H113       26.0539   32.0787    0.6706 H         1 UNK         0.0806 
    114 H114       24.7305   32.4369    1.7749 H         1 UNK         0.0806 
    115 H115       28.5729   32.4981    1.1165 H         1 UNK         0.3010 
    116 H116       30.0731   34.9713    0.5574 H         1 UNK         0.0829 
    117 H117       28.6611   34.6933   -1.4932 H         1 UNK         0.0813 
    118 H118       30.3580   34.4327   -1.8545 H         1 UNK         0.0813 
    119 H119       29.2788   33.0553   -1.7055 H         1 UNK         0.0813 
    120 H120       30.0526   31.6456    1.4585 H         1 UNK         0.3038 
    121 H121       33.0019   31.5401    1.3877 H         1 UNK         0.0769 
    122 H122       32.8346   29.1951    0.4673 H         1 UNK         0.0811 
    123 H123       32.1998   30.3565   -0.6820 H         1 UNK         0.0811 
    124 H124       31.0943   29.3877    0.2837 H         1 UNK         0.0811 
    125 H125       33.6688   29.4790    2.6663 H         1 UNK         0.3204 
    126 H126       31.8385   28.4124    4.5889 H         1 UNK         0.0748 
    127 H127       33.1468   29.1774    6.6090 H         1 UNK         0.0771 
    128 H128       34.1079   30.2415    5.5903 H         1 UNK         0.0771 
    129 H129       32.3834   30.5383    5.8045 H         1 UNK         0.0771 
    130 H130       32.7873   26.5520    5.5926 H         1 UNK         0.2980 
    131 H131       34.8437   25.2862    3.9962 H         1 UNK         0.0545 
    132 H132       36.8936   24.4130    4.7668 H         1 UNK         0.3459 
    133 H133       37.6820   25.1352    6.1448 H         1 UNK         0.3459 
    134 H134       33.3560   24.2475    6.4590 H         1 UNK         0.0616 
    135 H135       34.4069   23.2898    5.4421 H         1 UNK         0.0616 
    136 H136       31.3616   22.1774    5.8072 H         1 UNK         0.0634 
    137 H137       31.0301   23.8225    6.3105 H         1 UNK         0.0634 
@<TRIPOS>BOND
     1    1    2 1    
     2    1   72 1    
     3    1   73 1    
     4    1   74 1    
     5    2    3 2    
     6    2    4 am   BACKBONE|DICT|INTERRES
     7    4    5 1    
     8    4   75 1    
     9    5    6 1    
    10    5   35 1    
    11    5   76 1    
    12    6    7 1    
    13    6   77 1    
    14    6   78 1    
    15    7    8 1    
    16    8    9 1    
    17    8   79 1    
    18    8   80 1    
    19    9   10 ar   
    20    9   14 ar   
    21   10   11 ar   
    22   10   81 1    
    23   11   12 ar   
    24   11   71 1    
    25   12   13 ar   
    26   12   82 1    
    27   13   14 ar   
    28   13   15 1    
    29   14   83 1    
    30   15   16 1    
    31   15   84 1    
    32   15   85 1    
    33   16   17 1    
    34   17   18 1    
    35   17   86 1    
    36   17   87 1    
    37   18   19 1    
    38   18   37 1    
    39   18   88 1    
    40   19   20 am   BACKBONE|DICT|INTERRES
    41   19   89 1    
    42   20   21 2    
    43   20   22 1    
    44   22   23 1    
    45   22   24 1    
    46   22   90 1    
    47   23   91 1    
    48   23   92 1    
    49   23   93 1    
    50   24   25 am   BACKBONE|DICT|INTERRES
    51   24   94 1    
    52   25   26 2    
    53   25   27 1    
    54   27   28 1    
    55   27   29 1    
    56   27   95 1    
    57   28   96 1    
    58   28   97 1    
    59   28   98 1    
    60   29   30 am   BACKBONE|DICT|INTERRES
    61   29   99 1    
    62   30   31 2    
    63   30   32 1    
    64   32   33 1    
    65   32   34 1    
    66   32  100 1    
    67   33  101 1    
    68   33  102 1    
    69   33  103 1    
    70   34   35 am   BACKBONE|DICT|INTERRES
    71   34  104 1    
    72   35   36 2    
    73   37   38 2    
    74   37   39 am   BACKBONE|DICT|INTERRES
    75   39   40 1    
    76   39  105 1    
    77   40   41 1    
    78   40   42 1    
    79   40  106 1    
    80   41  107 1    
    81   41  108 1    
    82   41  109 1    
    83   42   43 2    
    84   42   44 am   BACKBONE|DICT|INTERRES
    85   44   45 1    
    86   44  110 1    
    87   45   46 1    
    88   45   47 1    
    89   45  111 1    
    90   46  112 1    
    91   46  113 1    
    92   46  114 1    
    93   47   48 2    
    94   47   49 am   BACKBONE|DICT|INTERRES
    95   49   50 1    
    96   49  115 1    
    97   50   51 1    
    98   50   52 1    
    99   50  116 1    
   100   51  117 1    
   101   51  118 1    
   102   51  119 1    
   103   52   53 2    
   104   52   54 am   BACKBONE|DICT|INTERRES
   105   54   55 1    
   106   54  120 1    
   107   55   56 1    
   108   55   57 1    
   109   55  121 1    
   110   56  122 1    
   111   56  123 1    
   112   56  124 1    
   113   57   58 2    
   114   57   59 am   BACKBONE|DICT|INTERRES
   115   59   60 1    
   116   59  125 1    
   117   60   61 1    
   118   60   62 1    
   119   60  126 1    
   120   61  127 1    
   121   61  128 1    
   122   61  129 1    
   123   62   63 2    
   124   62   64 am   BACKBONE|DICT|INTERRES
   125   64   65 1    
   126   64  130 1    
   127   65   66 1    
   128   65   69 1    
   129   65  131 1    
   130   66   67 am   BACKBONE|DICT|INTERRES
   131   66   68 2    
   132   67  132 1    
   133   67  133 1    
   134   69   70 1    
   135   69  134 1    
   136   69  135 1    
   137   70   71 1    
   138   71  136 1    
   139   71  137 1    
@<TRIPOS>SUBSTRUCTURE
     1 UNK         1 GROUP             0       ****    0 ROOT    
