@<TRIPOS>MOLECULE
3R136
137   139    1
SMALL
USER_CHARGES


@<TRIPOS>ATOM
      1 CA         31.2211   19.4060   -0.2077 C.3       0 UNK        -0.1979 
      2 C          31.3928   20.7935   -0.8085 C.2       0 UNK         0.4864 
      3 O          32.3596   21.0267   -1.5357 O.2       0 UNK        -0.5359 
      4 N          30.4614   21.7055   -0.5090 N.am      1 UNK        -0.4318 
      5 CA         30.4140   23.0784   -1.0171 C.3       1 UNK         0.0824 
      6 C6         30.6358   24.1220    0.1059 C.3       12 UNK        -0.0944 
      7 S7         32.3370   24.0847    0.7655 S.3       12 UNK        -0.2672 
      8 C8         32.1397   23.1416    2.3109 C.3       12 UNK         0.0333 
      9 C9         31.3890   23.9253    3.3786 C.ar      12 UNK        -0.0807 
     10 C10        32.0396   24.9261    4.1070 C.ar      12 UNK        -0.0894 
     11 C11        31.3627   25.6278    5.1102 C.ar      12 UNK        -0.0804 
     12 C12        30.0251   25.3282    5.3765 C.ar      12 UNK        -0.0824 
     13 C13        29.3565   24.3510    4.6350 C.ar      12 UNK        -0.0762 
     14 C14        30.0467   23.6424    3.6480 C.ar      12 UNK        -0.0782 
     15 C15        27.8842   24.0701    4.8843 C.3       12 UNK         0.0230 
     16 S16        26.8306   25.0678    3.7842 S.3       12 UNK        -0.2608 
     17 C17        26.9236   26.7200    4.5589 C.3       12 UNK        -0.0989 
     18 CA         27.6972   27.7575    3.7037 C.3       5 UNK         0.0716 
     19 N          27.0660   27.9341    2.3929 N.am      5 UNK        -0.4135 
     20 C          27.4238   28.7752    1.4152 C.2       4 UNK         0.5031 
     21 O          28.4116   29.5134    1.4702 O.2       4 UNK        -0.5229 
     22 CA         26.5130   28.8059    0.1690 C.3       4 UNK         0.0329 
     23 CB         27.0890   29.6812   -0.9582 C.3       4 UNK        -0.2001 
     24 N          26.2150   27.4792   -0.3809 N.am      4 UNK        -0.4303 
     25 C          25.3765   26.5708    0.1306 C.2       3 UNK         0.5044 
     26 O          24.7790   26.7383    1.1946 O.2       3 UNK        -0.5152 
     27 CA         25.1534   25.2546   -0.6428 C.3       3 UNK         0.0319 
     28 CB         23.8177   25.3035   -1.4100 C.3       3 UNK        -0.2001 
     29 N          26.2421   24.8070   -1.5287 N.am      3 UNK        -0.4354 
     30 C          26.7392   25.3819   -2.6327 C.2       2 UNK         0.4964 
     31 O          26.4130   26.5035   -3.0236 O.2       2 UNK        -0.5047 
     32 CA         27.7886   24.5684   -3.4194 C.3       2 UNK         0.0288 
     33 CB         28.2418   25.2805   -4.7087 C.3       2 UNK        -0.2113 
     34 N          28.9760   24.2392   -2.6243 N.am      2 UNK        -0.4145 
     35 C          29.0441   23.2882   -1.6832 C.2       1 UNK         0.5006 
     36 O          28.0739   22.6108   -1.3273 O.2       1 UNK        -0.5103 
     37 C          27.7680   29.1049    4.4476 C.2       5 UNK         0.5055 
     38 O          26.7157   29.6838    4.7261 O.2       5 UNK        -0.5220 
     39 N          28.9850   29.6063    4.7030 N.am      6 UNK        -0.4450 
     40 CA         29.3326   30.8999    5.3133 C.3       6 UNK         0.0367 
     41 CB         28.7360   31.0462    6.7270 C.3       6 UNK        -0.1929 
     42 C          29.0184   32.1318    4.4403 C.2       6 UNK         0.5070 
     43 O          29.7203   33.1364    4.5571 O.2       6 UNK        -0.5237 
     44 N          27.9964   32.0451    3.5788 N.am      7 UNK        -0.4739 
     45 CA         27.5921   33.0766    2.6210 C.3       7 UNK         0.0276 
     46 CB         26.2393   32.6914    2.0012 C.3       7 UNK        -0.1927 
     47 C          28.6408   33.3265    1.5240 C.2       7 UNK         0.5013 
     48 O          28.8170   34.4745    1.1133 O.2       7 UNK        -0.5193 
     49 N          29.3238   32.2610    1.0878 N.am      8 UNK        -0.4253 
     50 CA         30.4478   32.3217    0.1519 C.3       8 UNK         0.0242 
     51 CB         29.9580   32.1542   -1.2964 C.3       8 UNK        -0.2000 
     52 C          31.5230   31.2840    0.4964 C.2       8 UNK         0.4948 
     53 O          32.7094   31.5946    0.3804 O.2       8 UNK        -0.5275 
     54 N          31.1118   30.0811    0.9210 N.am      9 UNK        -0.4246 
     55 CA         32.0081   29.0258    1.3829 C.3       9 UNK         0.0261 
     56 CB         31.3003   27.6671    1.2579 C.3       9 UNK        -0.1959 
     57 C          32.4187   29.3060    2.8331 C.2       9 UNK         0.5033 
     58 O          31.6006   29.1126    3.7342 O.2       9 UNK        -0.5390 
     59 N          33.6568   29.7731    3.0259 N.am      10 UNK        -0.4215 
     60 CA         34.2706   29.9917    4.3356 C.3       10 UNK         0.0240 
     61 CB         35.2208   31.1973    4.2521 C.3       10 UNK        -0.1982 
     62 C          35.0349   28.7319    4.7683 C.2       10 UNK         0.4970 
     63 O          35.6256   28.0574    3.9212 O.2       10 UNK        -0.4916 
     64 N          35.0125   28.4448    6.0732 N.am      11 UNK        -0.4279 
     65 CA         35.6032   27.2409    6.6815 C.3       11 UNK         0.1003 
     66 C          36.1201   27.4620    8.1329 C.2       11 UNK         0.5709 
     67 N          36.2333   28.6946    8.6163 N.am      11 UNK        -0.7358 
     68 O          36.4515   26.5053    8.8292 O.2       11 UNK        -0.4999 
     69 C69        34.6944   25.9865    6.5133 C.3       12 UNK        -0.0954 
     70 S70        33.0406   26.1522    7.2760 S.3       12 UNK        -0.2268 
     71 C71        32.0479   26.7492    5.8729 C.3       12 UNK         0.0203 
     72 H72        32.0850   19.1548    0.4072 H         1 UNK         0.0888 
     73 H73        30.3304   19.3389    0.4169 H         1 UNK         0.0888 
     74 H74        31.1372   18.6618   -0.9991 H         1 UNK         0.0888 
     75 H75        29.6421   21.4301    0.0157 H         1 UNK         0.3017 
     76 H76        31.1747   23.2215   -1.7879 H         1 UNK         0.0873 
     77 H77        30.4706   25.1308   -0.2756 H         1 UNK         0.0745 
     78 H78        29.9123   23.9894    0.9104 H         1 UNK         0.0745 
     79 H79        33.1296   22.8805    2.6879 H         1 UNK         0.0705 
     80 H80        31.6390   22.1960    2.0995 H         1 UNK         0.0705 
     81 H81        33.0700   25.1618    3.8822 H         1 UNK         0.1334 
     82 H82        29.4995   25.8741    6.1473 H         1 UNK         0.1417 
     83 H83        29.5322   22.8787    3.0807 H         1 UNK         0.1562 
     84 H84        27.6228   24.2580    5.9269 H         1 UNK         0.0748 
     85 H85        27.6753   23.0140    4.7068 H         1 UNK         0.0748 
     86 H86        27.3649   26.6334    5.5526 H         1 UNK         0.0940 
     87 H87        25.8984   27.0576    4.7260 H         1 UNK         0.0940 
     88 H88        28.7117   27.3895    3.5393 H         1 UNK         0.0703 
     89 H89        26.2263   27.3841    2.2342 H         1 UNK         0.3081 
     90 H90        25.5709   29.2579    0.4860 H         1 UNK         0.0719 
     91 H91        28.0380   29.2867   -1.3227 H         1 UNK         0.0809 
     92 H92        26.4044   29.7394   -1.8047 H         1 UNK         0.0809 
     93 H93        27.2623   30.7023   -0.6168 H         1 UNK         0.0809 
     94 H94        26.6025   27.2684   -1.2956 H         1 UNK         0.2990 
     95 H95        25.0649   24.4761    0.1167 H         1 UNK         0.0690 
     96 H96        23.5927   24.3444   -1.8766 H         1 UNK         0.0788 
     97 H97        23.8258   26.0639   -2.1918 H         1 UNK         0.0788 
     98 H98        22.9900   25.5382   -0.7391 H         1 UNK         0.0788 
     99 H99        26.6513   23.9089   -1.2818 H         1 UNK         0.2993 
    100 H100       27.3029   23.6355   -3.7149 H         1 UNK         0.0949 
    101 H101       28.7469   26.2234   -4.4944 H         1 UNK         0.0767 
    102 H102       28.9241   24.6576   -5.2876 H         1 UNK         0.0767 
    103 H103       27.3898   25.5055   -5.3520 H         1 UNK         0.0767 
    104 H104       29.8070   24.7752   -2.8303 H         1 UNK         0.3013 
    105 H105       29.8008   29.1136    4.3407 H         1 UNK         0.3121 
    106 H106       30.4181   30.8801    5.4233 H         1 UNK         0.0774 
    107 H107       29.1143   31.9457    7.2141 H         1 UNK         0.0815 
    108 H108       27.6489   31.1257    6.7078 H         1 UNK         0.0815 
    109 H109       29.0014   30.1992    7.3593 H         1 UNK         0.0815 
    110 H110       27.4435   31.1957    3.6072 H         1 UNK         0.2987 
    111 H111       27.4646   34.0111    3.1718 H         1 UNK         0.0949 
    112 H112       25.9045   33.4501    1.2923 H         1 UNK         0.0806 
    113 H113       26.2954   31.7448    1.4638 H         1 UNK         0.0806 
    114 H114       25.4661   32.5980    2.7640 H         1 UNK         0.0806 
    115 H115       29.0849   31.3503    1.4688 H         1 UNK         0.3010 
    116 H116       30.9250   33.3007    0.2380 H         1 UNK         0.0829 
    117 H117       29.1998   32.8953   -1.5497 H         1 UNK         0.0813 
    118 H118       30.7820   32.2792   -2.0000 H         1 UNK         0.0813 
    119 H119       29.5347   31.1655   -1.4677 H         1 UNK         0.0813 
    120 H120       30.1176   29.8874    1.0217 H         1 UNK         0.3038 
    121 H121       32.8990   28.9989    0.7514 H         1 UNK         0.0769 
    122 H122       31.9403   26.8658    1.6271 H         1 UNK         0.0811 
    123 H123       31.0570   27.4433    0.2198 H         1 UNK         0.0811 
    124 H124       30.3765   27.6296    1.8342 H         1 UNK         0.0811 
    125 H125       34.2612   29.8891    2.2247 H         1 UNK         0.3204 
    126 H126       33.4940   30.2126    5.0716 H         1 UNK         0.0748 
    127 H127       35.6770   31.4045    5.2210 H         1 UNK         0.0771 
    128 H128       36.0298   31.0276    3.5401 H         1 UNK         0.0771 
    129 H129       34.6891   32.0985    3.9457 H         1 UNK         0.0771 
    130 H130       34.4988   29.0399    6.7068 H         1 UNK         0.2980 
    131 H131       36.5221   27.0290    6.1319 H         1 UNK         0.0545 
    132 H132       36.5769   28.8168    9.5562 H         1 UNK         0.3459 
    133 H133       36.0405   29.5023    8.0476 H         1 UNK         0.3459 
    134 H134       35.1768   25.1061    6.9407 H         1 UNK         0.0616 
    135 H135       34.5815   25.7592    5.4541 H         1 UNK         0.0616 
    136 H136       32.6772   27.3082    5.1866 H         1 UNK         0.0634 
    137 H137       31.3076   27.4592    6.2448 H         1 UNK         0.0634 
@<TRIPOS>BOND
     1    1    2 1    
     2    1   72 1    
     3    1   73 1    
     4    1   74 1    
     5    2    3 2    
     6    2    4 am   BACKBONE|DICT|INTERRES
     7    4    5 1    
     8    4   75 1    
     9    5    6 1    
    10    5   35 1    
    11    5   76 1    
    12    6    7 1    
    13    6   77 1    
    14    6   78 1    
    15    7    8 1    
    16    8    9 1    
    17    8   79 1    
    18    8   80 1    
    19    9   10 ar   
    20    9   14 ar   
    21   10   11 ar   
    22   10   81 1    
    23   11   12 ar   
    24   11   71 1    
    25   12   13 ar   
    26   12   82 1    
    27   13   14 ar   
    28   13   15 1    
    29   14   83 1    
    30   15   16 1    
    31   15   84 1    
    32   15   85 1    
    33   16   17 1    
    34   17   18 1    
    35   17   86 1    
    36   17   87 1    
    37   18   19 1    
    38   18   37 1    
    39   18   88 1    
    40   19   20 am   BACKBONE|DICT|INTERRES
    41   19   89 1    
    42   20   21 2    
    43   20   22 1    
    44   22   23 1    
    45   22   24 1    
    46   22   90 1    
    47   23   91 1    
    48   23   92 1    
    49   23   93 1    
    50   24   25 am   BACKBONE|DICT|INTERRES
    51   24   94 1    
    52   25   26 2    
    53   25   27 1    
    54   27   28 1    
    55   27   29 1    
    56   27   95 1    
    57   28   96 1    
    58   28   97 1    
    59   28   98 1    
    60   29   30 am   BACKBONE|DICT|INTERRES
    61   29   99 1    
    62   30   31 2    
    63   30   32 1    
    64   32   33 1    
    65   32   34 1    
    66   32  100 1    
    67   33  101 1    
    68   33  102 1    
    69   33  103 1    
    70   34   35 am   BACKBONE|DICT|INTERRES
    71   34  104 1    
    72   35   36 2    
    73   37   38 2    
    74   37   39 am   BACKBONE|DICT|INTERRES
    75   39   40 1    
    76   39  105 1    
    77   40   41 1    
    78   40   42 1    
    79   40  106 1    
    80   41  107 1    
    81   41  108 1    
    82   41  109 1    
    83   42   43 2    
    84   42   44 am   BACKBONE|DICT|INTERRES
    85   44   45 1    
    86   44  110 1    
    87   45   46 1    
    88   45   47 1    
    89   45  111 1    
    90   46  112 1    
    91   46  113 1    
    92   46  114 1    
    93   47   48 2    
    94   47   49 am   BACKBONE|DICT|INTERRES
    95   49   50 1    
    96   49  115 1    
    97   50   51 1    
    98   50   52 1    
    99   50  116 1    
   100   51  117 1    
   101   51  118 1    
   102   51  119 1    
   103   52   53 2    
   104   52   54 am   BACKBONE|DICT|INTERRES
   105   54   55 1    
   106   54  120 1    
   107   55   56 1    
   108   55   57 1    
   109   55  121 1    
   110   56  122 1    
   111   56  123 1    
   112   56  124 1    
   113   57   58 2    
   114   57   59 am   BACKBONE|DICT|INTERRES
   115   59   60 1    
   116   59  125 1    
   117   60   61 1    
   118   60   62 1    
   119   60  126 1    
   120   61  127 1    
   121   61  128 1    
   122   61  129 1    
   123   62   63 2    
   124   62   64 am   BACKBONE|DICT|INTERRES
   125   64   65 1    
   126   64  130 1    
   127   65   66 1    
   128   65   69 1    
   129   65  131 1    
   130   66   67 am   BACKBONE|DICT|INTERRES
   131   66   68 2    
   132   67  132 1    
   133   67  133 1    
   134   69   70 1    
   135   69  134 1    
   136   69  135 1    
   137   70   71 1    
   138   71  136 1    
   139   71  137 1    
@<TRIPOS>SUBSTRUCTURE
     1 UNK         1 GROUP             0       ****    0 ROOT    
