@<TRIPOS>MOLECULE
3R136
137   139    1
SMALL
USER_CHARGES


@<TRIPOS>ATOM
      1 CA         33.8334   20.0246    2.0963 C.3       0 UNK        -0.1979 
      2 C          32.5947   20.7804    1.6368 C.2       0 UNK         0.4864 
      3 O          32.0025   20.4115    0.6210 O.2       0 UNK        -0.5359 
      4 N          32.2084   21.8263    2.3825 N.am      1 UNK        -0.4318 
      5 CA         31.0646   22.7166    2.1265 C.3       1 UNK         0.0824 
      6 C6         29.6864   21.9855    2.1675 C.3       12 UNK        -0.0944 
      7 S7         29.4077   21.1271    3.7572 S.3       12 UNK        -0.2672 
      8 C8         27.8137   21.8302    4.3170 C.3       12 UNK         0.0333 
      9 C9         27.7901   23.3468    4.5217 C.ar      12 UNK        -0.0807 
     10 C10        28.9501   24.0863    4.7814 C.ar      12 UNK        -0.0894 
     11 C11        28.8961   25.4744    4.9225 C.ar      12 UNK        -0.0804 
     12 C12        27.6631   26.1275    4.8644 C.ar      12 UNK        -0.0824 
     13 C13        26.4905   25.4004    4.6430 C.ar      12 UNK        -0.0762 
     14 C14        26.5628   24.0154    4.4622 C.ar      12 UNK        -0.0782 
     15 C15        25.1404   26.1006    4.6188 C.3       12 UNK         0.0230 
     16 S16        24.5905   26.4594    2.9223 S.3       12 UNK        -0.2608 
     17 C17        25.6345   27.8894    2.4740 C.3       12 UNK        -0.0989 
     18 CA         26.6017   27.5874    1.2946 C.3       5 UNK         0.0716 
     19 N          25.9339   27.1070    0.0749 N.am      5 UNK        -0.4135 
     20 C          24.9143   27.6730   -0.5938 C.2       4 UNK         0.5031 
     21 O          24.3512   28.7147   -0.2509 O.2       4 UNK        -0.5229 
     22 CA         24.3918   26.9227   -1.8401 C.3       4 UNK         0.0329 
     23 CB         23.7517   27.8657   -2.8829 C.3       4 UNK        -0.2001 
     24 N          25.3815   26.0372   -2.4674 N.am      4 UNK        -0.4303 
     25 C          26.5385   26.3935   -3.0424 C.2       3 UNK         0.5044 
     26 O          26.9280   27.5544   -3.1797 O.2       3 UNK        -0.5152 
     27 CA         27.4365   25.2367   -3.5103 C.3       3 UNK         0.0319 
     28 CB         27.7494   25.3483   -5.0121 C.3       3 UNK        -0.2001 
     29 N          28.6890   25.1940   -2.7528 N.am      3 UNK        -0.4354 
     30 C          28.7824   25.0101   -1.4292 C.2       2 UNK         0.4964 
     31 O          27.8143   24.8482   -0.6787 O.2       2 UNK        -0.5047 
     32 CA         30.1945   25.0310   -0.8401 C.3       2 UNK         0.0288 
     33 CB         30.6134   26.4636   -0.4725 C.3       2 UNK        -0.2113 
     34 N          30.2043   24.1921    0.3521 N.am      2 UNK        -0.4145 
     35 C          31.2793   23.5796    0.8593 C.2       1 UNK         0.5006 
     36 O          32.4121   23.7124    0.3859 O.2       1 UNK        -0.5103 
     37 C          27.5288   28.7931    1.0223 C.2       5 UNK         0.5055 
     38 O          27.2717   29.6055    0.1317 O.2       5 UNK        -0.5220 
     39 N          28.5926   28.9059    1.8270 N.am      6 UNK        -0.4450 
     40 CA         29.5636   30.0010    1.7840 C.3       6 UNK         0.0367 
     41 CB         30.6122   29.7407    0.6867 C.3       6 UNK        -0.1929 
     42 C          30.1917   30.1811    3.1726 C.2       6 UNK         0.5070 
     43 O          31.4199   30.2611    3.2927 O.2       6 UNK        -0.5237 
     44 N          29.3407   30.1945    4.2081 N.am      7 UNK        -0.4739 
     45 CA         29.7270   30.3219    5.6147 C.3       7 UNK         0.0276 
     46 CB         28.4781   30.2023    6.5034 C.3       7 UNK        -0.1927 
     47 C          30.4726   31.6404    5.8743 C.2       7 UNK         0.5013 
     48 O          29.9039   32.7116    5.6577 O.2       7 UNK        -0.5193 
     49 N          31.7461   31.5153    6.2717 N.am      8 UNK        -0.4253 
     50 CA         32.7456   32.5766    6.4655 C.3       8 UNK         0.0242 
     51 CB         32.2893   33.5935    7.5337 C.3       8 UNK        -0.2000 
     52 C          33.2102   33.2711    5.1662 C.2       8 UNK         0.4948 
     53 O          34.0252   34.1915    5.2487 O.2       8 UNK        -0.5275 
     54 N          32.7257   32.8187    4.0012 N.am      9 UNK        -0.4246 
     55 CA         33.1124   33.3155    2.6798 C.3       9 UNK         0.0261 
     56 CB         31.8555   33.5496    1.8256 C.3       9 UNK        -0.1959 
     57 C          34.0824   32.3502    1.9827 C.2       9 UNK         0.5033 
     58 O          35.0480   32.8160    1.3754 O.2       9 UNK        -0.5390 
     59 N          33.8323   31.0369    2.0916 N.am      10 UNK        -0.4215 
     60 CA         34.6937   29.9854    1.5400 C.3       10 UNK         0.0240 
     61 CB         34.3047   29.6697    0.0841 C.3       10 UNK        -0.1982 
     62 C          34.7274   28.7083    2.3945 C.2       10 UNK         0.4970 
     63 O          35.7313   27.9978    2.3252 O.2       10 UNK        -0.4916 
     64 N          33.6799   28.4352    3.1868 N.am      11 UNK        -0.4279 
     65 CA         33.6146   27.2892    4.1139 C.3       11 UNK         0.1003 
     66 C          33.4756   27.7059    5.6064 C.2       11 UNK         0.5709 
     67 N          33.7061   28.9647    5.9641 N.am      11 UNK        -0.7358 
     68 O          33.1995   26.8728    6.4652 O.2       11 UNK        -0.4999 
     69 C69        32.6019   26.2031    3.6526 C.3       12 UNK        -0.0954 
     70 S70        30.8723   26.7650    3.5195 S.3       12 UNK        -0.2268 
     71 C71        30.1757   26.2638    5.1253 C.3       12 UNK         0.0203 
     72 H72        34.6000   20.0558    1.3225 H         1 UNK         0.0888 
     73 H73        34.2552   20.4468    3.0083 H         1 UNK         0.0888 
     74 H74        33.5855   18.9813    2.2896 H         1 UNK         0.0888 
     75 H75        32.7642   22.0744    3.1882 H         1 UNK         0.3017 
     76 H76        31.0795   23.4402    2.9407 H         1 UNK         0.0873 
     77 H77        28.8641   22.6850    2.0142 H         1 UNK         0.0745 
     78 H78        29.6083   21.2540    1.3619 H         1 UNK         0.0745 
     79 H79        27.5401   21.3525    5.2585 H         1 UNK         0.0705 
     80 H80        27.0486   21.5450    3.5930 H         1 UNK         0.0705 
     81 H81        29.9054   23.5897    4.8638 H         1 UNK         0.1334 
     82 H82        27.6187   27.1991    4.9963 H         1 UNK         0.1417 
     83 H83        25.6549   23.4562    4.2793 H         1 UNK         0.1562 
     84 H84        25.1684   27.0217    5.2032 H         1 UNK         0.0748 
     85 H85        24.3945   25.4652    5.0988 H         1 UNK         0.0748 
     86 H86        26.1937   28.2121    3.3526 H         1 UNK         0.0940 
     87 H87        24.9769   28.7263    2.2345 H         1 UNK         0.0940 
     88 H88        27.2460   26.7608    1.6011 H         1 UNK         0.0703 
     89 H89        26.3384   26.2616   -0.3128 H         1 UNK         0.3081 
     90 H90        23.6016   26.2666   -1.4721 H         1 UNK         0.0719 
     91 H91        24.4593   28.6145   -3.2400 H         1 UNK         0.0809 
     92 H92        23.3827   27.3124   -3.7464 H         1 UNK         0.0809 
     93 H93        22.9022   28.4014   -2.4575 H         1 UNK         0.0809 
     94 H94        25.1820   25.0488   -2.3896 H         1 UNK         0.2990 
     95 H95        26.9163   24.2907   -3.3445 H         1 UNK         0.0690 
     96 H96        28.3333   24.4965   -5.3614 H         1 UNK         0.0788 
     97 H97        28.3080   26.2565   -5.2430 H         1 UNK         0.0788 
     98 H98        26.8308   25.3732   -5.6000 H         1 UNK         0.0788 
     99 H99        29.5340   25.3593   -3.2805 H         1 UNK         0.2993 
    100 H100       30.8879   24.6202   -1.5777 H         1 UNK         0.0949 
    101 H101       29.9488   26.8838    0.2820 H         1 UNK         0.0767 
    102 H102       31.6285   26.4931   -0.0753 H         1 UNK         0.0767 
    103 H103       30.5843   27.1213   -1.3420 H         1 UNK         0.0767 
    104 H104       29.2885   24.0411    0.7563 H         1 UNK         0.3013 
    105 H105       28.7666   28.2021    2.5333 H         1 UNK         0.3121 
    106 H106       29.0448   30.9339    1.5535 H         1 UNK         0.0774 
    107 H107       31.2927   30.5847    0.5801 H         1 UNK         0.0815 
    108 H108       31.2124   28.8623    0.9215 H         1 UNK         0.0815 
    109 H109       30.1462   29.5825   -0.2857 H         1 UNK         0.0815 
    110 H110       28.3504   30.1743    4.0142 H         1 UNK         0.2987 
    111 H111       30.3925   29.4890    5.8505 H         1 UNK         0.0949 
    112 H112       27.7499   30.9845    6.2847 H         1 UNK         0.0806 
    113 H113       27.9862   29.2386    6.3737 H         1 UNK         0.0806 
    114 H114       28.7416   30.2897    7.5584 H         1 UNK         0.0806 
    115 H115       32.1036   30.5751    6.3754 H         1 UNK         0.3010 
    116 H116       33.6314   32.0750    6.8579 H         1 UNK         0.0829 
    117 H117       31.9828   33.0944    8.4528 H         1 UNK         0.0813 
    118 H118       33.0987   34.2771    7.7932 H         1 UNK         0.0813 
    119 H119       31.4544   34.2028    7.1868 H         1 UNK         0.0813 
    120 H120       32.0736   32.0435    4.0211 H         1 UNK         0.3038 
    121 H121       33.6234   34.2760    2.7763 H         1 UNK         0.0769 
    122 H122       32.1212   33.8943    0.8253 H         1 UNK         0.0811 
    123 H123       31.2159   34.3116    2.2712 H         1 UNK         0.0811 
    124 H124       31.2611   32.6448    1.7127 H         1 UNK         0.0811 
    125 H125       32.9896   30.7417    2.5791 H         1 UNK         0.3204 
    126 H126       35.7211   30.3567    1.5339 H         1 UNK         0.0748 
    127 H127       35.0071   28.9625   -0.3590 H         1 UNK         0.0771 
    128 H128       33.3146   29.2235    0.0134 H         1 UNK         0.0771 
    129 H129       34.3161   30.5661   -0.5361 H         1 UNK         0.0771 
    130 H130       32.8621   29.0359    3.1955 H         1 UNK         0.2980 
    131 H131       34.5834   26.7879    4.1120 H         1 UNK         0.0545 
    132 H132       33.7112   29.1829    6.9478 H         1 UNK         0.3459 
    133 H133       34.0502   29.6247    5.2865 H         1 UNK         0.3459 
    134 H134       32.6578   25.3224    4.2940 H         1 UNK         0.0616 
    135 H135       32.8953   25.8492    2.6631 H         1 UNK         0.0616 
    136 H136       30.8891   25.6653    5.6923 H         1 UNK         0.0634 
    137 H137       29.9822   27.1525    5.7261 H         1 UNK         0.0634 
@<TRIPOS>BOND
     1    1    2 1    
     2    1   72 1    
     3    1   73 1    
     4    1   74 1    
     5    2    3 2    
     6    2    4 am   BACKBONE|DICT|INTERRES
     7    4    5 1    
     8    4   75 1    
     9    5    6 1    
    10    5   35 1    
    11    5   76 1    
    12    6    7 1    
    13    6   77 1    
    14    6   78 1    
    15    7    8 1    
    16    8    9 1    
    17    8   79 1    
    18    8   80 1    
    19    9   10 ar   
    20    9   14 ar   
    21   10   11 ar   
    22   10   81 1    
    23   11   12 ar   
    24   11   71 1    
    25   12   13 ar   
    26   12   82 1    
    27   13   14 ar   
    28   13   15 1    
    29   14   83 1    
    30   15   16 1    
    31   15   84 1    
    32   15   85 1    
    33   16   17 1    
    34   17   18 1    
    35   17   86 1    
    36   17   87 1    
    37   18   19 1    
    38   18   37 1    
    39   18   88 1    
    40   19   20 am   BACKBONE|DICT|INTERRES
    41   19   89 1    
    42   20   21 2    
    43   20   22 1    
    44   22   23 1    
    45   22   24 1    
    46   22   90 1    
    47   23   91 1    
    48   23   92 1    
    49   23   93 1    
    50   24   25 am   BACKBONE|DICT|INTERRES
    51   24   94 1    
    52   25   26 2    
    53   25   27 1    
    54   27   28 1    
    55   27   29 1    
    56   27   95 1    
    57   28   96 1    
    58   28   97 1    
    59   28   98 1    
    60   29   30 am   BACKBONE|DICT|INTERRES
    61   29   99 1    
    62   30   31 2    
    63   30   32 1    
    64   32   33 1    
    65   32   34 1    
    66   32  100 1    
    67   33  101 1    
    68   33  102 1    
    69   33  103 1    
    70   34   35 am   BACKBONE|DICT|INTERRES
    71   34  104 1    
    72   35   36 2    
    73   37   38 2    
    74   37   39 am   BACKBONE|DICT|INTERRES
    75   39   40 1    
    76   39  105 1    
    77   40   41 1    
    78   40   42 1    
    79   40  106 1    
    80   41  107 1    
    81   41  108 1    
    82   41  109 1    
    83   42   43 2    
    84   42   44 am   BACKBONE|DICT|INTERRES
    85   44   45 1    
    86   44  110 1    
    87   45   46 1    
    88   45   47 1    
    89   45  111 1    
    90   46  112 1    
    91   46  113 1    
    92   46  114 1    
    93   47   48 2    
    94   47   49 am   BACKBONE|DICT|INTERRES
    95   49   50 1    
    96   49  115 1    
    97   50   51 1    
    98   50   52 1    
    99   50  116 1    
   100   51  117 1    
   101   51  118 1    
   102   51  119 1    
   103   52   53 2    
   104   52   54 am   BACKBONE|DICT|INTERRES
   105   54   55 1    
   106   54  120 1    
   107   55   56 1    
   108   55   57 1    
   109   55  121 1    
   110   56  122 1    
   111   56  123 1    
   112   56  124 1    
   113   57   58 2    
   114   57   59 am   BACKBONE|DICT|INTERRES
   115   59   60 1    
   116   59  125 1    
   117   60   61 1    
   118   60   62 1    
   119   60  126 1    
   120   61  127 1    
   121   61  128 1    
   122   61  129 1    
   123   62   63 2    
   124   62   64 am   BACKBONE|DICT|INTERRES
   125   64   65 1    
   126   64  130 1    
   127   65   66 1    
   128   65   69 1    
   129   65  131 1    
   130   66   67 am   BACKBONE|DICT|INTERRES
   131   66   68 2    
   132   67  132 1    
   133   67  133 1    
   134   69   70 1    
   135   69  134 1    
   136   69  135 1    
   137   70   71 1    
   138   71  136 1    
   139   71  137 1    
@<TRIPOS>SUBSTRUCTURE
     1 UNK         1 GROUP             0       ****    0 ROOT    
