@<TRIPOS>MOLECULE
3R136
137   139    1
SMALL
USER_CHARGES


@<TRIPOS>ATOM
      1 CA         26.6085   17.0342    1.6976 C.3       0 UNK        -0.1979 
      2 C          27.2010   18.3490    1.2119 C.2       0 UNK         0.4864 
      3 O          27.7997   18.3893    0.1357 O.2       0 UNK        -0.5359 
      4 N          27.0466   19.4215    1.9996 N.am      1 UNK        -0.4318 
      5 CA         27.4900   20.7764    1.6615 C.3       1 UNK         0.0824 
      6 C6         27.5460   21.6681    2.9273 C.3       12 UNK        -0.0944 
      7 S7         28.3972   23.2586    2.6554 S.3       12 UNK        -0.2672 
      8 C8         30.0888   22.8683    3.2010 C.3       12 UNK         0.0333 
      9 C9         30.9942   24.0866    3.0880 C.ar      12 UNK        -0.0807 
     10 C10        31.3331   24.8270    4.2253 C.ar      12 UNK        -0.0894 
     11 C11        32.1507   25.9569    4.1193 C.ar      12 UNK        -0.0804 
     12 C12        32.6317   26.3453    2.8647 C.ar      12 UNK        -0.0824 
     13 C13        32.3155   25.6022    1.7245 C.ar      12 UNK        -0.0762 
     14 C14        31.4940   24.4765    1.8418 C.ar      12 UNK        -0.0782 
     15 C15        32.8851   25.9866    0.3679 C.3       12 UNK         0.0230 
     16 S16        31.6660   26.8617   -0.6606 S.3       12 UNK        -0.2608 
     17 C17        31.9793   28.6179   -0.2539 C.3       12 UNK        -0.0989 
     18 CA         30.7386   29.3939    0.2603 C.3       5 UNK         0.0716 
     19 N          29.5339   29.1081   -0.5215 N.am      5 UNK        -0.4135 
     20 C          28.3374   29.6911   -0.3764 C.2       4 UNK         0.5031 
     21 O          28.1230   30.6320    0.3885 O.2       4 UNK        -0.5229 
     22 CA         27.1697   29.0857   -1.1775 C.3       4 UNK         0.0329 
     23 CB         27.6087   28.5073   -2.5413 C.3       4 UNK        -0.2001 
     24 N          26.4118   28.0758   -0.4222 N.am      4 UNK        -0.4303 
     25 C          26.8883   26.9760    0.1841 C.2       3 UNK         0.5044 
     26 O          28.0867   26.7156    0.2979 O.2       3 UNK        -0.5152 
     27 CA         25.8761   25.9736    0.7694 C.3       3 UNK         0.0319 
     28 CB         24.3914   26.3849    0.6342 C.3       3 UNK        -0.2001 
     29 N          26.1323   24.6368    0.2213 N.am      3 UNK        -0.4354 
     30 C          25.9929   24.2429   -1.0554 C.2       2 UNK         0.4964 
     31 O          25.4741   24.9360   -1.9316 O.2       2 UNK        -0.5047 
     32 CA         26.5479   22.8576   -1.4468 C.3       2 UNK         0.0288 
     33 CB         27.5513   22.9841   -2.6079 C.3       2 UNK        -0.2113 
     34 N          27.2086   22.1548   -0.3434 N.am      2 UNK        -0.4145 
     35 C          26.5918   21.3839    0.5611 C.2       1 UNK         0.5006 
     36 O          25.3757   21.1740    0.5709 O.2       1 UNK        -0.5103 
     37 C          30.5359   29.2261    1.7799 C.2       5 UNK         0.5055 
     38 O          31.1485   29.9750    2.5405 O.2       5 UNK        -0.5220 
     39 N          29.6534   28.3087    2.2016 N.am      6 UNK        -0.4450 
     40 CA         29.2583   28.1429    3.6025 C.3       6 UNK         0.0367 
     41 CB         28.4472   26.8521    3.7648 C.3       6 UNK        -0.1929 
     42 C          28.4558   29.3382    4.1384 C.2       6 UNK         0.5070 
     43 O          28.6884   29.7628    5.2692 O.2       6 UNK        -0.5237 
     44 N          27.5441   29.8736    3.3136 N.am      7 UNK        -0.4739 
     45 CA         26.7225   31.0439    3.6364 C.3       7 UNK         0.0276 
     46 CB         25.5305   31.1226    2.6689 C.3       7 UNK        -0.1927 
     47 C          27.5403   32.3450    3.6145 C.2       7 UNK         0.5013 
     48 O          27.3091   33.2218    4.4473 O.2       7 UNK        -0.5193 
     49 N          28.5079   32.4260    2.6906 N.am      8 UNK        -0.4253 
     50 CA         29.4950   33.5059    2.6010 C.3       8 UNK         0.0242 
     51 CB         30.1563   33.4581    1.2138 C.3       8 UNK        -0.2000 
     52 C          30.5725   33.4549    3.7039 C.2       8 UNK         0.4948 
     53 O          31.2984   34.4364    3.8660 O.2       8 UNK        -0.5275 
     54 N          30.6752   32.3195    4.4138 N.am      9 UNK        -0.4246 
     55 CA         31.6829   31.9757    5.4248 C.3       9 UNK         0.0261 
     56 CB         31.5701   32.8914    6.6620 C.3       9 UNK        -0.1959 
     57 C          33.1120   31.9091    4.8484 C.2       9 UNK         0.5033 
     58 O          34.0785   32.2232    5.5458 O.2       9 UNK        -0.5390 
     59 N          33.2275   31.4651    3.5912 N.am      10 UNK        -0.4215 
     60 CA         34.4768   31.2804    2.8548 C.3       10 UNK         0.0240 
     61 CB         34.2381   31.6490    1.3782 C.3       10 UNK        -0.1982 
     62 C          34.9812   29.8392    3.0408 C.2       10 UNK         0.4970 
     63 O          35.1625   29.1110    2.0632 O.2       10 UNK        -0.4916 
     64 N          35.1505   29.4448    4.3068 N.am      11 UNK        -0.4279 
     65 CA         35.6164   28.1190    4.7284 C.3       11 UNK         0.1003 
     66 C          37.1617   27.9720    4.6674 C.2       11 UNK         0.5709 
     67 N          37.6664   26.7506    4.7736 N.am      11 UNK        -0.7358 
     68 O          37.9063   28.9439    4.5467 O.2       11 UNK        -0.4999 
     69 C69        35.0253   27.7492    6.1218 C.3       12 UNK        -0.0954 
     70 S70        34.0841   26.1907    6.0729 S.3       12 UNK        -0.2268 
     71 C71        32.5085   26.7610    5.3590 C.3       12 UNK         0.0203 
     72 H72        25.8695   16.6700    0.9844 H         1 UNK         0.0888 
     73 H73        26.1210   17.1395    2.6667 H         1 UNK         0.0888 
     74 H74        27.3912   16.2819    1.7921 H         1 UNK         0.0888 
     75 H75        26.5175   19.3337    2.8554 H         1 UNK         0.3017 
     76 H76        28.5048   20.6904    1.2657 H         1 UNK         0.0873 
     77 H77        26.5400   21.8746    3.2985 H         1 UNK         0.0745 
     78 H78        28.0557   21.1400    3.7350 H         1 UNK         0.0745 
     79 H79        30.4886   22.0539    2.5950 H         1 UNK         0.0705 
     80 H80        30.0635   22.5072    4.2304 H         1 UNK         0.0705 
     81 H81        30.9538   24.5292    5.1933 H         1 UNK         0.1334 
     82 H82        33.2581   27.2216    2.7754 H         1 UNK         0.1417 
     83 H83        31.2378   23.9063    0.9593 H         1 UNK         0.1562 
     84 H84        33.1914   25.0810   -0.1580 H         1 UNK         0.0748 
     85 H85        33.7908   26.5854    0.4781 H         1 UNK         0.0748 
     86 H86        32.3349   29.0926   -1.1697 H         1 UNK         0.0940 
     87 H87        32.8117   28.7022    0.4478 H         1 UNK         0.0940 
     88 H88        30.9460   30.4540    0.1077 H         1 UNK         0.0703 
     89 H89        29.5900   28.2859   -1.1065 H         1 UNK         0.3081 
     90 H90        26.4805   29.9079   -1.3768 H         1 UNK         0.0719 
     91 H91        28.2112   27.6041   -2.4373 H         1 UNK         0.0809 
     92 H92        26.7418   28.2485   -3.1496 H         1 UNK         0.0809 
     93 H93        28.1925   29.2331   -3.1093 H         1 UNK         0.0809 
     94 H94        25.4091   28.1993   -0.4283 H         1 UNK         0.2990 
     95 H95        26.0940   25.9016    1.8345 H         1 UNK         0.0690 
     96 H96        23.7384   25.6275    1.0683 H         1 UNK         0.0788 
     97 H97        24.0852   26.5238   -0.4029 H         1 UNK         0.0788 
     98 H98        24.1922   27.3161    1.1664 H         1 UNK         0.0788 
     99 H99        26.6181   24.0085    0.8463 H         1 UNK         0.2993 
    100 H100       25.7008   22.2611   -1.7929 H         1 UNK         0.0949 
    101 H101       28.4076   23.6025   -2.3347 H         1 UNK         0.0767 
    102 H102       27.9255   22.0080   -2.9176 H         1 UNK         0.0767 
    103 H103       27.0862   23.4404   -3.4828 H         1 UNK         0.0767 
    104 H104       28.2052   22.2978   -0.2583 H         1 UNK         0.3013 
    105 H105       29.2052   27.7076    1.5129 H         1 UNK         0.3121 
    106 H106       30.1690   28.0546    4.1962 H         1 UNK         0.0774 
    107 H107       28.9334   26.0192    3.2621 H         1 UNK         0.0815 
    108 H108       28.3444   26.5867    4.8174 H         1 UNK         0.0815 
    109 H109       27.4436   26.9490    3.3540 H         1 UNK         0.0815 
    110 H110       27.4686   29.5124    2.3730 H         1 UNK         0.2987 
    111 H111       26.3307   30.9178    4.6485 H         1 UNK         0.0949 
    112 H112       25.8508   31.2568    1.6354 H         1 UNK         0.0806 
    113 H113       24.9202   30.2206    2.7166 H         1 UNK         0.0806 
    114 H114       24.8833   31.9643    2.9192 H         1 UNK         0.0806 
    115 H115       28.5633   31.6892    1.9925 H         1 UNK         0.3010 
    116 H116       28.9689   34.4578    2.6994 H         1 UNK         0.0829 
    117 H117       29.4147   33.4858    0.4151 H         1 UNK         0.0813 
    118 H118       30.8215   34.3105    1.0697 H         1 UNK         0.0813 
    119 H119       30.7550   32.5565    1.0875 H         1 UNK         0.0813 
    120 H120       30.0397   31.5697    4.1750 H         1 UNK         0.3038 
    121 H121       31.4444   30.9606    5.7465 H         1 UNK         0.0769 
    122 H122       31.8637   33.9169    6.4363 H         1 UNK         0.0811 
    123 H123       32.2154   32.5400    7.4679 H         1 UNK         0.0811 
    124 H124       30.5512   32.9103    7.0488 H         1 UNK         0.0811 
    125 H125       32.3893   31.0907    3.1447 H         1 UNK         0.3204 
    126 H126       35.2441   31.9506    3.2481 H         1 UNK         0.0748 
    127 H127       35.1509   31.5340    0.7923 H         1 UNK         0.0771 
    128 H128       33.4732   31.0203    0.9228 H         1 UNK         0.0771 
    129 H129       33.9176   32.6863    1.2786 H         1 UNK         0.0771 
    130 H130       35.0201   30.1295    5.0392 H         1 UNK         0.2980 
    131 H131       35.2419   27.4107    3.9878 H         1 UNK         0.0545 
    132 H132       37.0640   25.9506    4.8919 H         1 UNK         0.3459 
    133 H133       38.6664   26.6273    4.7451 H         1 UNK         0.3459 
    134 H134       34.3651   28.5303    6.5035 H         1 UNK         0.0616 
    135 H135       35.8024   27.6464    6.8818 H         1 UNK         0.0616 
    136 H136       31.7236   26.6703    6.1114 H         1 UNK         0.0634 
    137 H137       32.5615   27.8203    5.1023 H         1 UNK         0.0634 
@<TRIPOS>BOND
     1    1    2 1    
     2    1   72 1    
     3    1   73 1    
     4    1   74 1    
     5    2    3 2    
     6    2    4 am   BACKBONE|DICT|INTERRES
     7    4    5 1    
     8    4   75 1    
     9    5    6 1    
    10    5   35 1    
    11    5   76 1    
    12    6    7 1    
    13    6   77 1    
    14    6   78 1    
    15    7    8 1    
    16    8    9 1    
    17    8   79 1    
    18    8   80 1    
    19    9   10 ar   
    20    9   14 ar   
    21   10   11 ar   
    22   10   81 1    
    23   11   12 ar   
    24   11   71 1    
    25   12   13 ar   
    26   12   82 1    
    27   13   14 ar   
    28   13   15 1    
    29   14   83 1    
    30   15   16 1    
    31   15   84 1    
    32   15   85 1    
    33   16   17 1    
    34   17   18 1    
    35   17   86 1    
    36   17   87 1    
    37   18   19 1    
    38   18   37 1    
    39   18   88 1    
    40   19   20 am   BACKBONE|DICT|INTERRES
    41   19   89 1    
    42   20   21 2    
    43   20   22 1    
    44   22   23 1    
    45   22   24 1    
    46   22   90 1    
    47   23   91 1    
    48   23   92 1    
    49   23   93 1    
    50   24   25 am   BACKBONE|DICT|INTERRES
    51   24   94 1    
    52   25   26 2    
    53   25   27 1    
    54   27   28 1    
    55   27   29 1    
    56   27   95 1    
    57   28   96 1    
    58   28   97 1    
    59   28   98 1    
    60   29   30 am   BACKBONE|DICT|INTERRES
    61   29   99 1    
    62   30   31 2    
    63   30   32 1    
    64   32   33 1    
    65   32   34 1    
    66   32  100 1    
    67   33  101 1    
    68   33  102 1    
    69   33  103 1    
    70   34   35 am   BACKBONE|DICT|INTERRES
    71   34  104 1    
    72   35   36 2    
    73   37   38 2    
    74   37   39 am   BACKBONE|DICT|INTERRES
    75   39   40 1    
    76   39  105 1    
    77   40   41 1    
    78   40   42 1    
    79   40  106 1    
    80   41  107 1    
    81   41  108 1    
    82   41  109 1    
    83   42   43 2    
    84   42   44 am   BACKBONE|DICT|INTERRES
    85   44   45 1    
    86   44  110 1    
    87   45   46 1    
    88   45   47 1    
    89   45  111 1    
    90   46  112 1    
    91   46  113 1    
    92   46  114 1    
    93   47   48 2    
    94   47   49 am   BACKBONE|DICT|INTERRES
    95   49   50 1    
    96   49  115 1    
    97   50   51 1    
    98   50   52 1    
    99   50  116 1    
   100   51  117 1    
   101   51  118 1    
   102   51  119 1    
   103   52   53 2    
   104   52   54 am   BACKBONE|DICT|INTERRES
   105   54   55 1    
   106   54  120 1    
   107   55   56 1    
   108   55   57 1    
   109   55  121 1    
   110   56  122 1    
   111   56  123 1    
   112   56  124 1    
   113   57   58 2    
   114   57   59 am   BACKBONE|DICT|INTERRES
   115   59   60 1    
   116   59  125 1    
   117   60   61 1    
   118   60   62 1    
   119   60  126 1    
   120   61  127 1    
   121   61  128 1    
   122   61  129 1    
   123   62   63 2    
   124   62   64 am   BACKBONE|DICT|INTERRES
   125   64   65 1    
   126   64  130 1    
   127   65   66 1    
   128   65   69 1    
   129   65  131 1    
   130   66   67 am   BACKBONE|DICT|INTERRES
   131   66   68 2    
   132   67  132 1    
   133   67  133 1    
   134   69   70 1    
   135   69  134 1    
   136   69  135 1    
   137   70   71 1    
   138   71  136 1    
   139   71  137 1    
@<TRIPOS>SUBSTRUCTURE
     1 UNK         1 GROUP             0       ****    0 ROOT    
