@<TRIPOS>MOLECULE
3R136
137   139    1
SMALL
USER_CHARGES


@<TRIPOS>ATOM
      1 CA         24.9652   23.5643    5.4644 C.3       0 UNK        -0.1979 
      2 C          25.4324   22.8112    4.2273 C.2       0 UNK         0.4864 
      3 O          24.8355   21.7952    3.8675 O.2       0 UNK        -0.5359 
      4 N          26.4997   23.2969    3.5799 N.am      1 UNK        -0.4318 
      5 CA         27.0484   22.7447    2.3390 C.3       1 UNK         0.0824 
      6 C6         28.4589   23.3163    2.0544 C.3       12 UNK        -0.0944 
      7 S7         29.3802   22.3598    0.8049 S.3       12 UNK        -0.2672 
      8 C8         31.0736   22.4143    1.4798 C.3       12 UNK         0.0333 
      9 C9         31.6408   23.8287    1.5083 C.ar      12 UNK        -0.0807 
     10 C10        31.9810   24.4358    2.7221 C.ar      12 UNK        -0.0894 
     11 C11        32.5148   25.7290    2.7438 C.ar      12 UNK        -0.0804 
     12 C12        32.6979   26.4189    1.5424 C.ar      12 UNK        -0.0824 
     13 C13        32.3644   25.8229    0.3248 C.ar      12 UNK        -0.0762 
     14 C14        31.8468   24.5245    0.3136 C.ar      12 UNK        -0.0782 
     15 C15        32.5861   26.5623   -0.9843 C.3       12 UNK         0.0230 
     16 S16        31.0122   27.0861   -1.7299 S.3       12 UNK        -0.2608 
     17 C17        30.7699   28.7796   -1.0845 C.3       12 UNK        -0.0989 
     18 CA         29.5398   28.9716   -0.1533 C.3       5 UNK         0.0716 
     19 N          28.3762   28.1673   -0.5562 N.am      5 UNK        -0.4135 
     20 C          27.1285   28.2891   -0.0847 C.2       4 UNK         0.5031 
     21 O          26.8159   29.1188    0.7693 O.2       4 UNK        -0.5229 
     22 CA         26.0513   27.3063   -0.5826 C.3       4 UNK         0.0329 
     23 CB         25.0542   28.0087   -1.5250 C.3       4 UNK        -0.2001 
     24 N          26.5462   26.0471   -1.1626 N.am      4 UNK        -0.4303 
     25 C          27.1989   25.8524   -2.3208 C.2       3 UNK         0.5044 
     26 O          27.5556   26.7703   -3.0585 O.2       3 UNK        -0.5152 
     27 CA         27.5464   24.4034   -2.7234 C.3       3 UNK         0.0319 
     28 CB         29.0640   24.1733   -2.6579 C.3       3 UNK        -0.2001 
     29 N          26.8877   23.3865   -1.9022 N.am      3 UNK        -0.4354 
     30 C          25.5874   23.0650   -1.9629 C.2       2 UNK         0.4964 
     31 O          24.8045   23.5351   -2.7884 O.2       2 UNK        -0.5047 
     32 CA         25.0633   22.0722   -0.9070 C.3       2 UNK         0.0288 
     33 CB         24.9342   20.6642   -1.5109 C.3       2 UNK        -0.2113 
     34 N          25.8844   22.0003    0.3087 N.am      2 UNK        -0.4145 
     35 C          26.0926   23.0156    1.1599 C.2       1 UNK         0.5006 
     36 O          25.6178   24.1451    1.0092 O.2       1 UNK        -0.5103 
     37 C          29.9030   28.8778    1.3458 C.2       5 UNK         0.5055 
     38 O          30.5867   29.7708    1.8449 O.2       5 UNK        -0.5220 
     39 N          29.3837   27.8681    2.0596 N.am      6 UNK        -0.4450 
     40 CA         29.4324   27.7589    3.5215 C.3       6 UNK         0.0367 
     41 CB         28.9197   26.3743    3.9430 C.3       6 UNK        -0.1929 
     42 C          28.6639   28.8654    4.2721 C.2       6 UNK         0.5070 
     43 O          28.9029   29.0476    5.4658 O.2       6 UNK        -0.5237 
     44 N          27.7641   29.5864    3.5848 N.am      7 UNK        -0.4739 
     45 CA         27.0782   30.7676    4.1175 C.3       7 UNK         0.0276 
     46 CB         25.8535   31.0785    3.2420 C.3       7 UNK        -0.1927 
     47 C          27.9920   32.0051    4.2223 C.2       7 UNK         0.5013 
     48 O          27.6514   32.9356    4.9545 O.2       7 UNK        -0.5193 
     49 N          29.1187   32.0042    3.4974 N.am      8 UNK        -0.4253 
     50 CA         30.1571   33.0308    3.5515 C.3       8 UNK         0.0242 
     51 CB         30.6327   33.3188    2.1165 C.3       8 UNK        -0.2000 
     52 C          31.3276   32.5345    4.4118 C.2       8 UNK         0.4948 
     53 O          31.4423   31.3350    4.6767 O.2       8 UNK        -0.5275 
     54 N          32.2316   33.4509    4.7817 N.am      9 UNK        -0.4246 
     55 CA         33.4626   33.1779    5.5387 C.3       9 UNK         0.0261 
     56 CB         33.9561   34.4906    6.1765 C.3       9 UNK        -0.1959 
     57 C          34.5591   32.4780    4.7005 C.2       9 UNK         0.5033 
     58 O          35.7323   32.8463    4.7838 O.2       9 UNK        -0.5390 
     59 N          34.1569   31.4864    3.8978 N.am      10 UNK        -0.4215 
     60 CA         35.0178   30.6729    3.0395 C.3       10 UNK         0.0240 
     61 CB         34.1666   30.0997    1.8956 C.3       10 UNK        -0.1982 
     62 C          35.7296   29.5466    3.8089 C.2       10 UNK         0.4970 
     63 O          36.7818   29.0906    3.3598 O.2       10 UNK        -0.4916 
     64 N          35.1535   29.1312    4.9427 N.am      11 UNK        -0.4279 
     65 CA         35.7141   28.1555    5.8848 C.3       11 UNK         0.1003 
     66 C          35.9882   28.8426    7.2468 C.2       11 UNK         0.5709 
     67 N          36.9931   28.3859    7.9813 N.am      11 UNK        -0.7358 
     68 O          35.2819   29.7627    7.6583 O.2       11 UNK        -0.4999 
     69 C69        34.7765   26.9333    6.0695 C.3       12 UNK        -0.0954 
     70 S70        34.5926   25.9526    4.5430 S.3       12 UNK        -0.2268 
     71 C71        32.8949   26.3839    4.0621 C.3       12 UNK         0.0203 
     72 H72        24.9933   22.9098    6.3351 H         1 UNK         0.0888 
     73 H73        25.5890   24.4333    5.6736 H         1 UNK         0.0888 
     74 H74        23.9401   23.9080    5.3288 H         1 UNK         0.0888 
     75 H75        26.9298   24.1468    3.9113 H         1 UNK         0.3017 
     76 H76        27.1367   21.6649    2.4802 H         1 UNK         0.0873 
     77 H77        28.4124   24.3588    1.7337 H         1 UNK         0.0745 
     78 H78        29.0412   23.3065    2.9770 H         1 UNK         0.0745 
     79 H79        31.7178   21.7871    0.8620 H         1 UNK         0.0705 
     80 H80        31.0780   21.9690    2.4759 H         1 UNK         0.0705 
     81 H81        31.8382   23.9018    3.6517 H         1 UNK         0.1334 
     82 H82        33.1103   27.4160    1.5539 H         1 UNK         0.1417 
     83 H83        31.5969   24.0557   -0.6283 H         1 UNK         0.1562 
     84 H84        33.0940   25.8959   -1.6830 H         1 UNK         0.0748 
     85 H85        33.2493   27.4183   -0.8514 H         1 UNK         0.0748 
     86 H86        31.6875   29.1436   -0.6175 H         1 UNK         0.0940 
     87 H87        30.6376   29.4164   -1.9606 H         1 UNK         0.0940 
     88 H88        29.2251   30.0101   -0.2796 H         1 UNK         0.0703 
     89 H89        28.5401   27.4980   -1.2988 H         1 UNK         0.3081 
     90 H90        25.4949   27.0053    0.3067 H         1 UNK         0.0719 
     91 H91        25.5366   28.3773   -2.4306 H         1 UNK         0.0809 
     92 H92        24.2491   27.3366   -1.8222 H         1 UNK         0.0809 
     93 H93        24.5944   28.8673   -1.0335 H         1 UNK         0.0809 
     94 H94        26.3215   25.2261   -0.6097 H         1 UNK         0.2990 
     95 H95        27.2247   24.2686   -3.7582 H         1 UNK         0.0690 
     96 H96        29.4479   24.3326   -1.6501 H         1 UNK         0.0788 
     97 H97        29.5922   24.8593   -3.3214 H         1 UNK         0.0788 
     98 H98        29.3296   23.1614   -2.9641 H         1 UNK         0.0788 
     99 H99        27.4583   22.9355   -1.2009 H         1 UNK         0.2993 
    100 H100       24.0683   22.4138   -0.6130 H         1 UNK         0.0949 
    101 H101       25.9041   20.2595   -1.8031 H         1 UNK         0.0767 
    102 H102       24.4776   19.9694   -0.8054 H         1 UNK         0.0767 
    103 H103       24.3046   20.6773   -2.4019 H         1 UNK         0.0767 
    104 H104       26.3289   21.1128    0.4972 H         1 UNK         0.3013 
    105 H105       28.8394   27.1758    1.5685 H         1 UNK         0.3121 
    106 H106       30.4758   27.8492    3.8242 H         1 UNK         0.0774 
    107 H107       28.9400   26.2615    5.0280 H         1 UNK         0.0815 
    108 H108       27.8934   26.2090    3.6143 H         1 UNK         0.0815 
    109 H109       29.5458   25.5864    3.5301 H         1 UNK         0.0815 
    110 H110       27.5830   29.3609    2.6106 H         1 UNK         0.2987 
    111 H111       26.7265   30.5363    5.1255 H         1 UNK         0.0949 
    112 H112       26.1432   31.3483    2.2257 H         1 UNK         0.0806 
    113 H113       25.1796   30.2236    3.1820 H         1 UNK         0.0806 
    114 H114       25.2829   31.9136    3.6506 H         1 UNK         0.0806 
    115 H115       29.3753   31.1563    3.0042 H         1 UNK         0.3010 
    116 H116       29.7649   33.9514    3.9891 H         1 UNK         0.0829 
    117 H117       31.3740   34.1184    2.0973 H         1 UNK         0.0813 
    118 H118       31.0899   32.4408    1.6577 H         1 UNK         0.0813 
    119 H119       29.8045   33.6331    1.4812 H         1 UNK         0.0813 
    120 H120       32.0938   34.4081    4.4894 H         1 UNK         0.3038 
    121 H121       33.2140   32.4930    6.3525 H         1 UNK         0.0769 
    122 H122       33.1868   34.9426    6.8029 H         1 UNK         0.0811 
    123 H123       34.2481   35.2209    5.4208 H         1 UNK         0.0811 
    124 H124       34.8241   34.3154    6.8138 H         1 UNK         0.0811 
    125 H125       33.1685   31.2438    3.9316 H         1 UNK         0.3204 
    126 H126       35.7895   31.3124    2.6056 H         1 UNK         0.0748 
    127 H127       34.7503   29.4301    1.2623 H         1 UNK         0.0771 
    128 H128       33.3141   29.5393    2.2794 H         1 UNK         0.0771 
    129 H129       33.7771   30.8933    1.2576 H         1 UNK         0.0771 
    130 H130       34.3264   29.6101    5.2668 H         1 UNK         0.2980 
    131 H131       36.6729   27.7920    5.5097 H         1 UNK         0.0545 
    132 H132       37.1783   28.8126    8.8756 H         1 UNK         0.3459 
    133 H133       37.5709   27.6243    7.6606 H         1 UNK         0.3459 
    134 H134       35.1758   26.2615    6.8316 H         1 UNK         0.0616 
    135 H135       33.7952   27.2481    6.4297 H         1 UNK         0.0616 
    136 H136       32.2028   26.0751    4.8471 H         1 UNK         0.0634 
    137 H137       32.8141   27.4689    3.9811 H         1 UNK         0.0634 
@<TRIPOS>BOND
     1    1    2 1    
     2    1   72 1    
     3    1   73 1    
     4    1   74 1    
     5    2    3 2    
     6    2    4 am   BACKBONE|DICT|INTERRES
     7    4    5 1    
     8    4   75 1    
     9    5    6 1    
    10    5   35 1    
    11    5   76 1    
    12    6    7 1    
    13    6   77 1    
    14    6   78 1    
    15    7    8 1    
    16    8    9 1    
    17    8   79 1    
    18    8   80 1    
    19    9   10 ar   
    20    9   14 ar   
    21   10   11 ar   
    22   10   81 1    
    23   11   12 ar   
    24   11   71 1    
    25   12   13 ar   
    26   12   82 1    
    27   13   14 ar   
    28   13   15 1    
    29   14   83 1    
    30   15   16 1    
    31   15   84 1    
    32   15   85 1    
    33   16   17 1    
    34   17   18 1    
    35   17   86 1    
    36   17   87 1    
    37   18   19 1    
    38   18   37 1    
    39   18   88 1    
    40   19   20 am   BACKBONE|DICT|INTERRES
    41   19   89 1    
    42   20   21 2    
    43   20   22 1    
    44   22   23 1    
    45   22   24 1    
    46   22   90 1    
    47   23   91 1    
    48   23   92 1    
    49   23   93 1    
    50   24   25 am   BACKBONE|DICT|INTERRES
    51   24   94 1    
    52   25   26 2    
    53   25   27 1    
    54   27   28 1    
    55   27   29 1    
    56   27   95 1    
    57   28   96 1    
    58   28   97 1    
    59   28   98 1    
    60   29   30 am   BACKBONE|DICT|INTERRES
    61   29   99 1    
    62   30   31 2    
    63   30   32 1    
    64   32   33 1    
    65   32   34 1    
    66   32  100 1    
    67   33  101 1    
    68   33  102 1    
    69   33  103 1    
    70   34   35 am   BACKBONE|DICT|INTERRES
    71   34  104 1    
    72   35   36 2    
    73   37   38 2    
    74   37   39 am   BACKBONE|DICT|INTERRES
    75   39   40 1    
    76   39  105 1    
    77   40   41 1    
    78   40   42 1    
    79   40  106 1    
    80   41  107 1    
    81   41  108 1    
    82   41  109 1    
    83   42   43 2    
    84   42   44 am   BACKBONE|DICT|INTERRES
    85   44   45 1    
    86   44  110 1    
    87   45   46 1    
    88   45   47 1    
    89   45  111 1    
    90   46  112 1    
    91   46  113 1    
    92   46  114 1    
    93   47   48 2    
    94   47   49 am   BACKBONE|DICT|INTERRES
    95   49   50 1    
    96   49  115 1    
    97   50   51 1    
    98   50   52 1    
    99   50  116 1    
   100   51  117 1    
   101   51  118 1    
   102   51  119 1    
   103   52   53 2    
   104   52   54 am   BACKBONE|DICT|INTERRES
   105   54   55 1    
   106   54  120 1    
   107   55   56 1    
   108   55   57 1    
   109   55  121 1    
   110   56  122 1    
   111   56  123 1    
   112   56  124 1    
   113   57   58 2    
   114   57   59 am   BACKBONE|DICT|INTERRES
   115   59   60 1    
   116   59  125 1    
   117   60   61 1    
   118   60   62 1    
   119   60  126 1    
   120   61  127 1    
   121   61  128 1    
   122   61  129 1    
   123   62   63 2    
   124   62   64 am   BACKBONE|DICT|INTERRES
   125   64   65 1    
   126   64  130 1    
   127   65   66 1    
   128   65   69 1    
   129   65  131 1    
   130   66   67 am   BACKBONE|DICT|INTERRES
   131   66   68 2    
   132   67  132 1    
   133   67  133 1    
   134   69   70 1    
   135   69  134 1    
   136   69  135 1    
   137   70   71 1    
   138   71  136 1    
   139   71  137 1    
@<TRIPOS>SUBSTRUCTURE
     1 UNK         1 GROUP             0       ****    0 ROOT    
