@<TRIPOS>MOLECULE
3R136
137   139    1
SMALL
USER_CHARGES


@<TRIPOS>ATOM
      1 CA         25.6679   21.8431    4.3997 C.3       0 UNK        -0.1979 
      2 C          26.4095   22.3309    3.1650 C.2       0 UNK         0.4864 
      3 O          25.8120   22.9988    2.3199 O.2       0 UNK        -0.5359 
      4 N          27.7098   22.0173    3.0584 N.am      1 UNK        -0.4318 
      5 CA         28.5758   22.3928    1.9314 C.3       1 UNK         0.0824 
      6 C6         29.9743   21.7266    2.0267 C.3       12 UNK        -0.0944 
      7 S7         30.6277   21.2646    0.3887 S.3       12 UNK        -0.2672 
      8 C8         32.3719   21.7778    0.5076 C.3       12 UNK         0.0333 
      9 C9         32.5594   23.2716    0.2783 C.ar      12 UNK        -0.0807 
     10 C10        33.0490   24.0932    1.2990 C.ar      12 UNK        -0.0894 
     11 C11        33.2581   25.4570    1.0699 C.ar      12 UNK        -0.0804 
     12 C12        32.9741   25.9974   -0.1871 C.ar      12 UNK        -0.0824 
     13 C13        32.4710   25.1903   -1.2119 C.ar      12 UNK        -0.0762 
     14 C14        32.2749   23.8264   -0.9738 C.ar      12 UNK        -0.0782 
     15 C15        32.1257   25.7848   -2.5746 C.3       12 UNK         0.0230 
     16 S16        31.0414   27.2500   -2.4634 S.3       12 UNK        -0.2608 
     17 C17        29.6542   26.6223   -1.4563 C.3       12 UNK        -0.0989 
     18 CA         28.2618   26.7884   -2.1116 C.3       5 UNK         0.0716 
     19 N          27.2966   25.8961   -1.4636 N.am      5 UNK        -0.4135 
     20 C          26.0915   25.5699   -1.9474 C.2       4 UNK         0.5031 
     21 O          25.6625   25.9459   -3.0389 O.2       4 UNK        -0.5229 
     22 CA         25.2076   24.6866   -1.0480 C.3       4 UNK         0.0329 
     23 CB         25.6124   23.2083   -1.1661 C.3       4 UNK        -0.2001 
     24 N          25.2430   25.0947    0.3597 N.am      4 UNK        -0.4303 
     25 C          24.7816   26.2655    0.8243 C.2       3 UNK         0.5044 
     26 O          24.2235   27.1113    0.1255 O.2       3 UNK        -0.5152 
     27 CA         25.0122   26.5631    2.3145 C.3       3 UNK         0.0319 
     28 CB         23.9329   25.8970    3.1830 C.3       3 UNK        -0.2001 
     29 N          26.3409   26.1521    2.7718 N.am      3 UNK        -0.4354 
     30 C          27.4891   26.7224    2.3782 C.2       2 UNK         0.4964 
     31 O          27.5537   27.6595    1.5850 O.2       2 UNK        -0.5047 
     32 CA         28.7877   26.1118    2.9264 C.3       2 UNK         0.0288 
     33 CB         29.0297   26.5778    4.3723 C.3       2 UNK        -0.2113 
     34 N          28.7931   24.6485    2.8735 N.am      2 UNK        -0.4145 
     35 C          28.6764   23.9211    1.7511 C.2       1 UNK         0.5006 
     36 O          28.5730   24.4086    0.6256 O.2       1 UNK        -0.5103 
     37 C          27.8072   28.2663   -2.0971 C.2       5 UNK         0.5055 
     38 O          28.1631   29.0138   -3.0095 O.2       5 UNK        -0.5220 
     39 N          27.0490   28.6549   -1.0597 N.am      6 UNK        -0.4450 
     40 CA         26.7141   30.0259   -0.6564 C.3       6 UNK         0.0367 
     41 CB         25.9171   30.7773   -1.7443 C.3       6 UNK        -0.1929 
     42 C          27.9730   30.7737   -0.1744 C.2       6 UNK         0.5070 
     43 O          28.2192   31.9129   -0.5749 O.2       6 UNK        -0.5237 
     44 N          28.7536   30.0908    0.6699 N.am      7 UNK        -0.4739 
     45 CA         29.9938   30.5632    1.2795 C.3       7 UNK         0.0276 
     46 CB         31.0837   29.5094    1.0218 C.3       7 UNK        -0.1927 
     47 C          29.7859   30.7831    2.7866 C.2       7 UNK         0.5013 
     48 O          28.8031   30.2998    3.3548 O.2       7 UNK        -0.5193 
     49 N          30.7186   31.5100    3.4102 N.am      8 UNK        -0.4253 
     50 CA         30.7106   31.8602    4.8300 C.3       8 UNK         0.0242 
     51 CB         29.7162   33.0164    5.0841 C.3       8 UNK        -0.2000 
     52 C          32.1458   32.1875    5.2756 C.2       8 UNK         0.4948 
     53 O          33.0991   31.7734    4.6081 O.2       8 UNK        -0.5275 
     54 N          32.2760   32.9267    6.3878 N.am      9 UNK        -0.4246 
     55 CA         33.5213   33.3722    7.0232 C.3       9 UNK         0.0261 
     56 CB         34.2770   34.3792    6.1249 C.3       9 UNK        -0.1959 
     57 C          34.3722   32.1747    7.4789 C.2       9 UNK         0.5033 
     58 O          34.0650   31.5848    8.5159 O.2       9 UNK        -0.5390 
     59 N          35.4048   31.8266    6.7001 N.am      10 UNK        -0.4215 
     60 CA         36.2405   30.6423    6.9092 C.3       10 UNK         0.0240 
     61 CB         37.5060   30.7548    6.0434 C.3       10 UNK        -0.1982 
     62 C          35.5004   29.3241    6.6151 C.2       10 UNK         0.4970 
     63 O          35.8487   28.3004    7.2047 O.2       10 UNK        -0.4916 
     64 N          34.5082   29.3659    5.7163 N.am      11 UNK        -0.4279 
     65 CA         33.6317   28.2372    5.3931 C.3       11 UNK         0.1003 
     66 C          32.5321   28.0616    6.4751 C.2       11 UNK         0.5709 
     67 N          32.2958   26.8405    6.9351 N.am      11 UNK        -0.7358 
     68 O          31.8724   29.0190    6.8750 O.2       11 UNK        -0.4999 
     69 C69        33.0320   28.4155    3.9777 C.3       12 UNK        -0.0954 
     70 S70        32.4156   26.8542    3.2724 S.3       12 UNK        -0.2268 
     71 C71        33.7767   26.3571    2.1786 C.3       12 UNK         0.0203 
     72 H72        24.8427   21.1946    4.1070 H         1 UNK         0.0888 
     73 H73        26.3177   21.2838    5.0725 H         1 UNK         0.0888 
     74 H74        25.2572   22.6898    4.9489 H         1 UNK         0.0888 
     75 H75        28.1431   21.4641    3.7842 H         1 UNK         0.3017 
     76 H76        28.0708   22.0084    1.0422 H         1 UNK         0.0873 
     77 H77        29.9161   20.7995    2.5992 H         1 UNK         0.0745 
     78 H78        30.6884   22.3562    2.5619 H         1 UNK         0.0745 
     79 H79        32.9444   21.2357   -0.2464 H         1 UNK         0.0705 
     80 H80        32.7774   21.4711    1.4731 H         1 UNK         0.0705 
     81 H81        33.2694   23.6754    2.2719 H         1 UNK         0.1334 
     82 H82        33.1246   27.0537   -0.3642 H         1 UNK         0.1417 
     83 H83        31.8920   23.1904   -1.7605 H         1 UNK         0.1562 
     84 H84        31.6376   25.0428   -3.2084 H         1 UNK         0.0748 
     85 H85        33.0489   26.0660   -3.0826 H         1 UNK         0.0748 
     86 H86        29.6878   27.0906   -0.4704 H         1 UNK         0.0940 
     87 H87        29.8305   25.5616   -1.2786 H         1 UNK         0.0940 
     88 H88        28.3349   26.4778   -3.1561 H         1 UNK         0.0703 
     89 H89        27.5994   25.4711   -0.5896 H         1 UNK         0.3081 
     90 H90        24.1772   24.7854   -1.3958 H         1 UNK         0.0719 
     91 H91        24.9532   22.5692   -0.5783 H         1 UNK         0.0809 
     92 H92        25.5559   22.8697   -2.2015 H         1 UNK         0.0809 
     93 H93        26.6332   23.0390   -0.8222 H         1 UNK         0.0809 
     94 H94        25.6324   24.4294    1.0239 H         1 UNK         0.2990 
     95 H95        24.9346   27.6441    2.4506 H         1 UNK         0.0690 
     96 H96        22.9361   26.2180    2.8773 H         1 UNK         0.0788 
     97 H97        24.0494   26.1625    4.2338 H         1 UNK         0.0788 
     98 H98        23.9615   24.8096    3.1059 H         1 UNK         0.0788 
     99 H99        26.3829   25.3496    3.3824 H         1 UNK         0.2993 
    100 H100       29.6095   26.4660    2.3009 H         1 UNK         0.0949 
    101 H101       28.2154   26.2873    5.0371 H         1 UNK         0.0767 
    102 H102       29.9526   26.1642    4.7783 H         1 UNK         0.0767 
    103 H103       29.1177   27.6645    4.4179 H         1 UNK         0.0767 
    104 H104       28.8560   24.1611    3.7550 H         1 UNK         0.3013 
    105 H105       26.8668   27.9607   -0.3435 H         1 UNK         0.3121 
    106 H106       26.0642   29.9304    0.2150 H         1 UNK         0.0774 
    107 H107       26.5249   30.9960   -2.6223 H         1 UNK         0.0815 
    108 H108       25.5502   31.7309   -1.3633 H         1 UNK         0.0815 
    109 H109       25.0505   30.2014   -2.0686 H         1 UNK         0.0815 
    110 H110       28.4046   29.2019    1.0244 H         1 UNK         0.2987 
    111 H111       30.3011   31.5113    0.8326 H         1 UNK         0.0949 
    112 H112       30.8143   28.5437    1.4496 H         1 UNK         0.0806 
    113 H113       31.2463   29.3636   -0.0463 H         1 UNK         0.0806 
    114 H114       32.0388   29.8076    1.4550 H         1 UNK         0.0806 
    115 H115       31.5485   31.8059    2.9118 H         1 UNK         0.3010 
    116 H116       30.3952   30.9850    5.4024 H         1 UNK         0.0829 
    117 H117       29.5954   33.2186    6.1486 H         1 UNK         0.0813 
    118 H118       30.0433   33.9397    4.6042 H         1 UNK         0.0813 
    119 H119       28.7233   32.7799    4.7014 H         1 UNK         0.0813 
    120 H120       31.4308   33.1837    6.8781 H         1 UNK         0.3038 
    121 H121       33.2330   33.9034    7.9318 H         1 UNK         0.0769 
    122 H122       34.5395   33.9648    5.1513 H         1 UNK         0.0811 
    123 H123       35.1993   34.7145    6.6016 H         1 UNK         0.0811 
    124 H124       33.6713   35.2676    5.9456 H         1 UNK         0.0811 
    125 H125       35.5591   32.3549    5.8530 H         1 UNK         0.3204 
    126 H126       36.5448   30.6214    7.9580 H         1 UNK         0.0748 
    127 H127       38.0790   31.6485    6.2917 H         1 UNK         0.0771 
    128 H128       38.1625   29.8975    6.1994 H         1 UNK         0.0771 
    129 H129       37.2667   30.7926    4.9797 H         1 UNK         0.0771 
    130 H130       34.2346   30.2595    5.3208 H         1 UNK         0.2980 
    131 H131       34.2526   27.3388    5.3789 H         1 UNK         0.0545 
    132 H132       31.5773   26.7100    7.6291 H         1 UNK         0.3459 
    133 H133       32.8190   26.0480    6.5981 H         1 UNK         0.3459 
    134 H134       32.2114   29.1338    3.9917 H         1 UNK         0.0616 
    135 H135       33.7759   28.8361    3.2998 H         1 UNK         0.0616 
    136 H136       34.2542   27.2375    1.7465 H         1 UNK         0.0634 
    137 H137       34.5415   25.8423    2.7618 H         1 UNK         0.0634 
@<TRIPOS>BOND
     1    1    2 1    
     2    1   72 1    
     3    1   73 1    
     4    1   74 1    
     5    2    3 2    
     6    2    4 am   BACKBONE|DICT|INTERRES
     7    4    5 1    
     8    4   75 1    
     9    5    6 1    
    10    5   35 1    
    11    5   76 1    
    12    6    7 1    
    13    6   77 1    
    14    6   78 1    
    15    7    8 1    
    16    8    9 1    
    17    8   79 1    
    18    8   80 1    
    19    9   10 ar   
    20    9   14 ar   
    21   10   11 ar   
    22   10   81 1    
    23   11   12 ar   
    24   11   71 1    
    25   12   13 ar   
    26   12   82 1    
    27   13   14 ar   
    28   13   15 1    
    29   14   83 1    
    30   15   16 1    
    31   15   84 1    
    32   15   85 1    
    33   16   17 1    
    34   17   18 1    
    35   17   86 1    
    36   17   87 1    
    37   18   19 1    
    38   18   37 1    
    39   18   88 1    
    40   19   20 am   BACKBONE|DICT|INTERRES
    41   19   89 1    
    42   20   21 2    
    43   20   22 1    
    44   22   23 1    
    45   22   24 1    
    46   22   90 1    
    47   23   91 1    
    48   23   92 1    
    49   23   93 1    
    50   24   25 am   BACKBONE|DICT|INTERRES
    51   24   94 1    
    52   25   26 2    
    53   25   27 1    
    54   27   28 1    
    55   27   29 1    
    56   27   95 1    
    57   28   96 1    
    58   28   97 1    
    59   28   98 1    
    60   29   30 am   BACKBONE|DICT|INTERRES
    61   29   99 1    
    62   30   31 2    
    63   30   32 1    
    64   32   33 1    
    65   32   34 1    
    66   32  100 1    
    67   33  101 1    
    68   33  102 1    
    69   33  103 1    
    70   34   35 am   BACKBONE|DICT|INTERRES
    71   34  104 1    
    72   35   36 2    
    73   37   38 2    
    74   37   39 am   BACKBONE|DICT|INTERRES
    75   39   40 1    
    76   39  105 1    
    77   40   41 1    
    78   40   42 1    
    79   40  106 1    
    80   41  107 1    
    81   41  108 1    
    82   41  109 1    
    83   42   43 2    
    84   42   44 am   BACKBONE|DICT|INTERRES
    85   44   45 1    
    86   44  110 1    
    87   45   46 1    
    88   45   47 1    
    89   45  111 1    
    90   46  112 1    
    91   46  113 1    
    92   46  114 1    
    93   47   48 2    
    94   47   49 am   BACKBONE|DICT|INTERRES
    95   49   50 1    
    96   49  115 1    
    97   50   51 1    
    98   50   52 1    
    99   50  116 1    
   100   51  117 1    
   101   51  118 1    
   102   51  119 1    
   103   52   53 2    
   104   52   54 am   BACKBONE|DICT|INTERRES
   105   54   55 1    
   106   54  120 1    
   107   55   56 1    
   108   55   57 1    
   109   55  121 1    
   110   56  122 1    
   111   56  123 1    
   112   56  124 1    
   113   57   58 2    
   114   57   59 am   BACKBONE|DICT|INTERRES
   115   59   60 1    
   116   59  125 1    
   117   60   61 1    
   118   60   62 1    
   119   60  126 1    
   120   61  127 1    
   121   61  128 1    
   122   61  129 1    
   123   62   63 2    
   124   62   64 am   BACKBONE|DICT|INTERRES
   125   64   65 1    
   126   64  130 1    
   127   65   66 1    
   128   65   69 1    
   129   65  131 1    
   130   66   67 am   BACKBONE|DICT|INTERRES
   131   66   68 2    
   132   67  132 1    
   133   67  133 1    
   134   69   70 1    
   135   69  134 1    
   136   69  135 1    
   137   70   71 1    
   138   71  136 1    
   139   71  137 1    
@<TRIPOS>SUBSTRUCTURE
     1 UNK         1 GROUP             0       ****    0 ROOT    
