@<TRIPOS>MOLECULE
3R136
137   139    1
SMALL
USER_CHARGES


@<TRIPOS>ATOM
      1 CA         30.9156   28.3581   -4.2555 C.3       0 UNK        -0.1979 
      2 C          29.9439   28.1585   -3.1020 C.2       0 UNK         0.4864 
      3 O          28.9077   28.8207   -3.0582 O.2       0 UNK        -0.5359 
      4 N          30.2762   27.2548   -2.1684 N.am      1 UNK        -0.4318 
      5 CA         29.4717   26.9235   -0.9854 C.3       1 UNK         0.0824 
      6 C6         30.2539   26.0353    0.0075 C.3       12 UNK        -0.0944 
      7 S7         31.5709   26.9684    0.8460 S.3       12 UNK        -0.2672 
      8 C8         32.4182   25.6293    1.7395 C.3       12 UNK         0.0333 
      9 C9         31.7040   25.2896    3.0386 C.ar      12 UNK        -0.0807 
     10 C10        32.0331   25.9807    4.2079 C.ar      12 UNK        -0.0894 
     11 C11        31.3901   25.6844    5.4125 C.ar      12 UNK        -0.0804 
     12 C12        30.4065   24.6939    5.4401 C.ar      12 UNK        -0.0824 
     13 C13        30.0577   24.0030    4.2752 C.ar      12 UNK        -0.0762 
     14 C14        30.7210   24.2940    3.0783 C.ar      12 UNK        -0.0782 
     15 C15        28.9586   22.9474    4.3227 C.3       12 UNK         0.0230 
     16 S16        27.4304   23.4540    3.4587 S.3       12 UNK        -0.2608 
     17 C17        27.1263   25.1397    4.0951 C.3       12 UNK        -0.0989 
     18 CA         27.3029   26.1789    2.9528 C.3       5 UNK         0.0716 
     19 N          26.1551   26.2817    2.0443 N.am      5 UNK        -0.4135 
     20 C          24.8801   26.5692    2.3445 C.2       4 UNK         0.5031 
     21 O          24.4419   26.7444    3.4825 O.2       4 UNK        -0.5229 
     22 CA         23.9121   26.6625    1.1544 C.3       4 UNK         0.0329 
     23 CB         24.0337   28.0292    0.4589 C.3       4 UNK        -0.2001 
     24 N          24.1138   25.5931    0.1741 N.am      4 UNK        -0.4303 
     25 C          23.7878   24.3050    0.3666 C.2       3 UNK         0.5044 
     26 O          23.2787   23.8796    1.4042 O.2       3 UNK        -0.5152 
     27 CA         24.0320   23.3235   -0.7975 C.3       3 UNK         0.0319 
     28 CB         22.6955   22.8890   -1.4229 C.3       3 UNK        -0.2001 
     29 N          24.8803   23.8923   -1.8476 N.am      3 UNK        -0.4354 
     30 C          26.2190   23.8859   -1.8295 C.2       2 UNK         0.4964 
     31 O          26.8872   23.2763   -0.9921 O.2       2 UNK        -0.5047 
     32 CA         26.9391   24.7134   -2.9171 C.3       2 UNK         0.0288 
     33 CB         26.0155   25.6927   -3.6794 C.3       2 UNK        -0.2113 
     34 N          28.0984   25.4418   -2.3865 N.am      2 UNK        -0.4145 
     35 C          28.1171   26.2766   -1.3339 C.2       1 UNK         0.5006 
     36 O          27.1335   26.5472   -0.6398 O.2       1 UNK        -0.5103 
     37 C          27.7867   27.5562    3.4525 C.2       5 UNK         0.5055 
     38 O          26.9878   28.4635    3.6888 O.2       5 UNK        -0.5220 
     39 N          29.1179   27.6839    3.5724 N.am      6 UNK        -0.4450 
     40 CA         29.8824   28.8691    3.9942 C.3       6 UNK         0.0367 
     41 CB         29.5375   29.2573    5.4472 C.3       6 UNK        -0.1929 
     42 C          29.7934   30.0832    3.0451 C.2       6 UNK         0.5070 
     43 O          30.2693   31.1606    3.4050 O.2       6 UNK        -0.5237 
     44 N          29.1955   29.9119    1.8573 N.am      7 UNK        -0.4739 
     45 CA         28.9543   30.9935    0.8987 C.3       7 UNK         0.0276 
     46 CB         27.8118   30.6017   -0.0527 C.3       7 UNK        -0.1927 
     47 C          30.2107   31.4245    0.1219 C.2       7 UNK         0.5013 
     48 O          30.2701   32.5775   -0.3072 O.2       7 UNK        -0.5193 
     49 N          31.1905   30.5209   -0.0393 N.am      8 UNK        -0.4253 
     50 CA         32.4905   30.8416   -0.6384 C.3       8 UNK         0.0242 
     51 CB         33.1695   29.5694   -1.1726 C.3       8 UNK        -0.2000 
     52 C          33.4054   31.5576    0.3662 C.2       8 UNK         0.4948 
     53 O          33.9778   32.5967    0.0353 O.2       8 UNK        -0.5275 
     54 N          33.5158   30.9883    1.5714 N.am      9 UNK        -0.4246 
     55 CA         34.3148   31.4649    2.6946 C.3       9 UNK         0.0261 
     56 CB         35.8204   31.3056    2.3978 C.3       9 UNK        -0.1959 
     57 C          33.9242   30.6449    3.9292 C.2       9 UNK         0.5033 
     58 O          33.3672   29.5519    3.7846 O.2       9 UNK        -0.5390 
     59 N          34.2483   31.1713    5.1166 N.am      10 UNK        -0.4215 
     60 CA         34.0853   30.4791    6.3958 C.3       10 UNK         0.0240 
     61 CB         34.2763   31.4812    7.5459 C.3       10 UNK        -0.1982 
     62 C          35.0748   29.3081    6.5253 C.2       10 UNK         0.4970 
     63 O          36.2234   29.4263    6.0917 O.2       10 UNK        -0.4916 
     64 N          34.6064   28.2161    7.1339 N.am      11 UNK        -0.4279 
     65 CA         35.3403   26.9540    7.3113 C.3       11 UNK         0.1003 
     66 C          35.9690   26.7749    8.7239 C.2       11 UNK         0.5709 
     67 N          35.8333   27.7285    9.6386 N.am      11 UNK        -0.7358 
     68 O          36.6141   25.7631    8.9890 O.2       11 UNK        -0.4999 
     69 C69        34.4736   25.7419    6.8699 C.3       12 UNK        -0.0954 
     70 S70        32.8869   25.5796    7.7642 S.3       12 UNK        -0.2268 
     71 C71        31.7209   26.4624    6.6765 C.3       12 UNK         0.0203 
     72 H72        30.4214   28.1452   -5.2030 H         1 UNK         0.0888 
     73 H73        31.2634   29.3906   -4.2767 H         1 UNK         0.0888 
     74 H74        31.7867   27.7084   -4.1736 H         1 UNK         0.0888 
     75 H75        31.1517   26.7579   -2.2512 H         1 UNK         0.3017 
     76 H76        29.2381   27.8606   -0.4811 H         1 UNK         0.0873 
     77 H77        29.5996   25.6243    0.7727 H         1 UNK         0.0745 
     78 H78        30.6885   25.1755   -0.5061 H         1 UNK         0.0745 
     79 H79        33.4397   25.9474    1.9541 H         1 UNK         0.0705 
     80 H80        32.5043   24.7469    1.1037 H         1 UNK         0.0705 
     81 H81        32.7837   26.7600    4.1759 H         1 UNK         0.1334 
     82 H82        29.9021   24.4720    6.3710 H         1 UNK         0.1417 
     83 H83        30.4594   23.7547    2.1779 H         1 UNK         0.1562 
     84 H84        28.7076   22.7012    5.3557 H         1 UNK         0.0748 
     85 H85        29.3271   22.0240    3.8739 H         1 UNK         0.0748 
     86 H86        27.7976   25.3408    4.9298 H         1 UNK         0.0940 
     87 H87        26.1280   25.1761    4.5301 H         1 UNK         0.0940 
     88 H88        28.1036   25.8175    2.3123 H         1 UNK         0.0703 
     89 H89        26.3905   26.2187    1.0566 H         1 UNK         0.3081 
     90 H90        22.8961   26.5736    1.5456 H         1 UNK         0.0719 
     91 H91        25.0189   28.1747    0.0141 H         1 UNK         0.0809 
     92 H92        23.2897   28.1406   -0.3300 H         1 UNK         0.0809 
     93 H93        23.8757   28.8420    1.1693 H         1 UNK         0.0809 
     94 H94        24.5679   25.8499   -0.6900 H         1 UNK         0.2990 
     95 H95        24.5156   22.4368   -0.3816 H         1 UNK         0.0690 
     96 H96        22.8482   22.1564   -2.2157 H         1 UNK         0.0788 
     97 H97        22.1521   23.7349   -1.8459 H         1 UNK         0.0788 
     98 H98        22.0475   22.4257   -0.6774 H         1 UNK         0.0788 
     99 H99        24.4118   24.3992   -2.5854 H         1 UNK         0.2993 
    100 H100       27.3285   23.9910   -3.6361 H         1 UNK         0.0949 
    101 H101       25.5432   26.4142   -3.0110 H         1 UNK         0.0767 
    102 H102       26.5789   26.2595   -4.4211 H         1 UNK         0.0767 
    103 H103       25.2286   25.1664   -4.2211 H         1 UNK         0.0767 
    104 H104       28.9737   25.2716   -2.8606 H         1 UNK         0.3013 
    105 H105       29.6925   26.8784    3.3576 H         1 UNK         0.3121 
    106 H106       30.9282   28.5643    3.9783 H         1 UNK         0.0774 
    107 H107       30.2494   29.9871    5.8346 H         1 UNK         0.0815 
    108 H108       28.5448   29.7024    5.5205 H         1 UNK         0.0815 
    109 H109       29.5642   28.3940    6.1099 H         1 UNK         0.0815 
    110 H110       28.8046   29.0070    1.6459 H         1 UNK         0.2987 
    111 H111       28.6195   31.8677    1.4624 H         1 UNK         0.0949 
    112 H112       27.5592   31.4315   -0.7142 H         1 UNK         0.0806 
    113 H113       28.0726   29.7580   -0.6881 H         1 UNK         0.0806 
    114 H114       26.9069   30.3413    0.4970 H         1 UNK         0.0806 
    115 H115       31.0700   29.5961    0.3484 H         1 UNK         0.3010 
    116 H116       32.3297   31.5114   -1.4864 H         1 UNK         0.0829 
    117 H117       32.5364   29.0484   -1.8873 H         1 UNK         0.0813 
    118 H118       34.0989   29.8167   -1.6873 H         1 UNK         0.0813 
    119 H119       33.4222   28.8715   -0.3745 H         1 UNK         0.0813 
    120 H120       32.9972   30.1446    1.7853 H         1 UNK         0.3038 
    121 H121       34.0759   32.5146    2.8765 H         1 UNK         0.0769 
    122 H122       36.0764   30.2682    2.1784 H         1 UNK         0.0811 
    123 H123       36.4263   31.6163    3.2497 H         1 UNK         0.0811 
    124 H124       36.1314   31.9132    1.5482 H         1 UNK         0.0811 
    125 H125       34.7389   32.0534    5.1404 H         1 UNK         0.3204 
    126 H126       33.0653   30.0899    6.4394 H         1 UNK         0.0748 
    127 H127       34.1230   31.0013    8.5134 H         1 UNK         0.0771 
    128 H128       35.2809   31.9067    7.5489 H         1 UNK         0.0771 
    129 H129       33.5634   32.3034    7.4785 H         1 UNK         0.0771 
    130 H130       33.6699   28.2220    7.5086 H         1 UNK         0.2980 
    131 H131       36.2007   26.9633    6.6398 H         1 UNK         0.0545 
    132 H132       36.2529   27.6031   10.5464 H         1 UNK         0.3459 
    133 H133       35.3246   28.5716    9.4297 H         1 UNK         0.3459 
    134 H134       35.0282   24.8107    6.9970 H         1 UNK         0.0616 
    135 H135       34.2786   25.8083    5.8004 H         1 UNK         0.0616 
    136 H136       32.1102   27.4478    6.4211 H         1 UNK         0.0634 
    137 H137       30.8034   26.6401    7.2390 H         1 UNK         0.0634 
@<TRIPOS>BOND
     1    1    2 1    
     2    1   72 1    
     3    1   73 1    
     4    1   74 1    
     5    2    3 2    
     6    2    4 am   BACKBONE|DICT|INTERRES
     7    4    5 1    
     8    4   75 1    
     9    5    6 1    
    10    5   35 1    
    11    5   76 1    
    12    6    7 1    
    13    6   77 1    
    14    6   78 1    
    15    7    8 1    
    16    8    9 1    
    17    8   79 1    
    18    8   80 1    
    19    9   10 ar   
    20    9   14 ar   
    21   10   11 ar   
    22   10   81 1    
    23   11   12 ar   
    24   11   71 1    
    25   12   13 ar   
    26   12   82 1    
    27   13   14 ar   
    28   13   15 1    
    29   14   83 1    
    30   15   16 1    
    31   15   84 1    
    32   15   85 1    
    33   16   17 1    
    34   17   18 1    
    35   17   86 1    
    36   17   87 1    
    37   18   19 1    
    38   18   37 1    
    39   18   88 1    
    40   19   20 am   BACKBONE|DICT|INTERRES
    41   19   89 1    
    42   20   21 2    
    43   20   22 1    
    44   22   23 1    
    45   22   24 1    
    46   22   90 1    
    47   23   91 1    
    48   23   92 1    
    49   23   93 1    
    50   24   25 am   BACKBONE|DICT|INTERRES
    51   24   94 1    
    52   25   26 2    
    53   25   27 1    
    54   27   28 1    
    55   27   29 1    
    56   27   95 1    
    57   28   96 1    
    58   28   97 1    
    59   28   98 1    
    60   29   30 am   BACKBONE|DICT|INTERRES
    61   29   99 1    
    62   30   31 2    
    63   30   32 1    
    64   32   33 1    
    65   32   34 1    
    66   32  100 1    
    67   33  101 1    
    68   33  102 1    
    69   33  103 1    
    70   34   35 am   BACKBONE|DICT|INTERRES
    71   34  104 1    
    72   35   36 2    
    73   37   38 2    
    74   37   39 am   BACKBONE|DICT|INTERRES
    75   39   40 1    
    76   39  105 1    
    77   40   41 1    
    78   40   42 1    
    79   40  106 1    
    80   41  107 1    
    81   41  108 1    
    82   41  109 1    
    83   42   43 2    
    84   42   44 am   BACKBONE|DICT|INTERRES
    85   44   45 1    
    86   44  110 1    
    87   45   46 1    
    88   45   47 1    
    89   45  111 1    
    90   46  112 1    
    91   46  113 1    
    92   46  114 1    
    93   47   48 2    
    94   47   49 am   BACKBONE|DICT|INTERRES
    95   49   50 1    
    96   49  115 1    
    97   50   51 1    
    98   50   52 1    
    99   50  116 1    
   100   51  117 1    
   101   51  118 1    
   102   51  119 1    
   103   52   53 2    
   104   52   54 am   BACKBONE|DICT|INTERRES
   105   54   55 1    
   106   54  120 1    
   107   55   56 1    
   108   55   57 1    
   109   55  121 1    
   110   56  122 1    
   111   56  123 1    
   112   56  124 1    
   113   57   58 2    
   114   57   59 am   BACKBONE|DICT|INTERRES
   115   59   60 1    
   116   59  125 1    
   117   60   61 1    
   118   60   62 1    
   119   60  126 1    
   120   61  127 1    
   121   61  128 1    
   122   61  129 1    
   123   62   63 2    
   124   62   64 am   BACKBONE|DICT|INTERRES
   125   64   65 1    
   126   64  130 1    
   127   65   66 1    
   128   65   69 1    
   129   65  131 1    
   130   66   67 am   BACKBONE|DICT|INTERRES
   131   66   68 2    
   132   67  132 1    
   133   67  133 1    
   134   69   70 1    
   135   69  134 1    
   136   69  135 1    
   137   70   71 1    
   138   71  136 1    
   139   71  137 1    
@<TRIPOS>SUBSTRUCTURE
     1 UNK         1 GROUP             0       ****    0 ROOT    
