@<TRIPOS>MOLECULE
3R136
137   139    1
SMALL
USER_CHARGES


@<TRIPOS>ATOM
      1 CA         28.0633   26.6751    2.3584 C.3       0 UNK        -0.1979 
      2 C          28.2307   25.1777    2.5473 C.2       0 UNK         0.4864 
      3 O          28.0175   24.6722    3.6500 O.2       0 UNK        -0.5359 
      4 N          28.6049   24.4657    1.4766 N.am      1 UNK        -0.4318 
      5 CA         28.7954   23.0098    1.4849 C.3       1 UNK         0.0824 
      6 C6         29.7114   22.5211    0.3266 C.3       12 UNK        -0.0944 
      7 S7         30.9477   21.3214    0.9369 S.3       12 UNK        -0.2672 
      8 C8         32.5259   22.2361    0.8289 C.3       12 UNK         0.0333 
      9 C9         32.4326   23.6758    1.3223 C.ar      12 UNK        -0.0807 
     10 C10        32.0754   23.9610    2.6436 C.ar      12 UNK        -0.0894 
     11 C11        31.9474   25.2828    3.0845 C.ar      12 UNK        -0.0804 
     12 C12        32.2012   26.3246    2.1800 C.ar      12 UNK        -0.0824 
     13 C13        32.5711   26.0545    0.8588 C.ar      12 UNK        -0.0762 
     14 C14        32.6943   24.7272    0.4409 C.ar      12 UNK        -0.0782 
     15 C15        32.8505   27.2073   -0.1002 C.3       12 UNK         0.0230 
     16 S16        32.1040   27.0031   -1.7559 S.3       12 UNK        -0.2608 
     17 C17        30.3298   26.7954   -1.3771 C.3       12 UNK        -0.0989 
     18 CA         29.4405   27.9623   -1.8994 C.3       5 UNK         0.0716 
     19 N          28.0805   27.5714   -2.2947 N.am      5 UNK        -0.4135 
     20 C          27.2555   26.7143   -1.6793 C.2       4 UNK         0.5031 
     21 O          27.5865   25.9452   -0.7712 O.2       4 UNK        -0.5229 
     22 CA         25.8152   26.6770   -2.2220 C.3       4 UNK         0.0329 
     23 CB         25.7374   25.7872   -3.4734 C.3       4 UNK        -0.2001 
     24 N          24.8768   26.1614   -1.2265 N.am      4 UNK        -0.4303 
     25 C          24.5078   26.7790   -0.0981 C.2       3 UNK         0.5044 
     26 O          24.7936   27.9463    0.1689 O.2       3 UNK        -0.5152 
     27 CA         23.7135   25.9464    0.9286 C.3       3 UNK         0.0319 
     28 CB         22.2050   25.9479    0.6114 C.3       3 UNK        -0.2001 
     29 N          24.2400   24.5837    1.1216 N.am      3 UNK        -0.4354 
     30 C          24.2393   23.5531    0.2616 C.2       2 UNK         0.4964 
     31 O          23.7058   23.5808   -0.8485 O.2       2 UNK        -0.5047 
     32 CA         25.0909   22.3475    0.6712 C.3       2 UNK         0.0288 
     33 CB         24.9880   21.1626   -0.3114 C.3       2 UNK        -0.2113 
     34 N          26.4707   22.8154    0.7586 N.am      2 UNK        -0.4145 
     35 C          27.4437   22.2678    1.4956 C.2       1 UNK         0.5006 
     36 O          27.3035   21.2480    2.1731 O.2       1 UNK        -0.5103 
     37 C          29.4003   29.1763   -0.9456 C.2       5 UNK         0.5055 
     38 O          28.3266   29.5960   -0.5050 O.2       5 UNK        -0.5220 
     39 N          30.5810   29.7445   -0.6730 N.am      6 UNK        -0.4450 
     40 CA         30.8157   30.8962    0.2015 C.3       6 UNK         0.0367 
     41 CB         32.2220   31.4522   -0.0859 C.3       6 UNK        -0.1929 
     42 C          30.6133   30.5496    1.6898 C.2       6 UNK         0.5070 
     43 O          31.5869   30.4280    2.4394 O.2       6 UNK        -0.5237 
     44 N          29.3415   30.3806    2.0732 N.am      7 UNK        -0.4739 
     45 CA         28.8638   30.0783    3.4235 C.3       7 UNK         0.0276 
     46 CB         27.3263   30.0683    3.4203 C.3       7 UNK        -0.1927 
     47 C          29.3873   31.0694    4.4733 C.2       7 UNK         0.5013 
     48 O          29.3745   32.2784    4.2270 O.2       7 UNK        -0.5193 
     49 N          29.8593   30.5324    5.6068 N.am      8 UNK        -0.4253 
     50 CA         30.5341   31.2068    6.7263 C.3       8 UNK         0.0242 
     51 CB         29.6389   32.2762    7.3832 C.3       8 UNK        -0.2000 
     52 C          31.9170   31.7784    6.3628 C.2       8 UNK         0.4948 
     53 O          32.8769   31.5229    7.0894 O.2       8 UNK        -0.5275 
     54 N          31.9986   32.5142    5.2467 N.am      9 UNK        -0.4246 
     55 CA         33.1948   33.1741    4.7225 C.3       9 UNK         0.0261 
     56 CB         32.8267   33.9759    3.4637 C.3       9 UNK        -0.1959 
     57 C          34.3573   32.2089    4.4433 C.2       9 UNK         0.5033 
     58 O          35.4683   32.4617    4.9124 O.2       9 UNK        -0.5390 
     59 N          34.0844   31.1197    3.7112 N.am      10 UNK        -0.4215 
     60 CA         35.0569   30.0492    3.4740 C.3       10 UNK         0.0240 
     61 CB         34.8231   29.4382    2.0856 C.3       10 UNK        -0.1982 
     62 C          34.9959   28.9588    4.5548 C.2       10 UNK         0.4970 
     63 O          36.0028   28.2839    4.7737 O.2       10 UNK        -0.4916 
     64 N          33.8294   28.7877    5.1921 N.am      11 UNK        -0.4279 
     65 CA         33.5937   27.7625    6.2205 C.3       11 UNK         0.1003 
     66 C          34.3401   28.0240    7.5578 C.2       11 UNK         0.5709 
     67 N          34.5303   29.2719    7.9691 N.am      11 UNK        -0.7358 
     68 O          34.7548   27.0806    8.2268 O.2       11 UNK        -0.4999 
     69 C69        32.0851   27.5082    6.4817 C.3       12 UNK        -0.0954 
     70 S70        31.1063   27.2452    4.9659 S.3       12 UNK        -0.2268 
     71 C71        31.5442   25.5218    4.5423 C.3       12 UNK         0.0203 
     72 H72        28.9487   27.1101    1.8949 H         1 UNK         0.0888 
     73 H73        27.1993   26.8912    1.7307 H         1 UNK         0.0888 
     74 H74        27.9108   27.1561    3.3231 H         1 UNK         0.0888 
     75 H75        28.6572   24.9333    0.5765 H         1 UNK         0.3017 
     76 H76        29.2795   22.7742    2.4356 H         1 UNK         0.0873 
     77 H77        29.1442   22.0529   -0.4808 H         1 UNK         0.0745 
     78 H78        30.2246   23.3574   -0.1489 H         1 UNK         0.0745 
     79 H79        33.2805   21.7073    1.4126 H         1 UNK         0.0705 
     80 H80        32.8670   22.2060   -0.2071 H         1 UNK         0.0705 
     81 H81        31.8770   23.1459    3.3264 H         1 UNK         0.1334 
     82 H82        32.1175   27.3547    2.4947 H         1 UNK         0.1417 
     83 H83        32.9802   24.5142   -0.5802 H         1 UNK         0.1562 
     84 H84        33.9304   27.3104   -0.2143 H         1 UNK         0.0748 
     85 H85        32.4973   28.1445    0.3268 H         1 UNK         0.0748 
     86 H86        30.1749   26.6291   -0.3099 H         1 UNK         0.0940 
     87 H87        30.0379   25.8622   -1.8611 H         1 UNK         0.0940 
     88 H88        29.8842   28.3282   -2.8269 H         1 UNK         0.0703 
     89 H89        27.6863   28.1415   -3.0294 H         1 UNK         0.3081 
     90 H90        25.5114   27.6927   -2.4838 H         1 UNK         0.0719 
     91 H91        26.0298   24.7591   -3.2544 H         1 UNK         0.0809 
     92 H92        24.7274   25.7671   -3.8834 H         1 UNK         0.0809 
     93 H93        26.3974   26.1531   -4.2611 H         1 UNK         0.0809 
     94 H94        24.5673   25.2011   -1.3424 H         1 UNK         0.2990 
     95 H95        23.8404   26.4434    1.8919 H         1 UNK         0.0690 
     96 H96        21.6413   25.3959    1.3634 H         1 UNK         0.0788 
     97 H97        21.9874   25.5075   -0.3619 H         1 UNK         0.0788 
     98 H98        21.8150   26.9665    0.5967 H         1 UNK         0.0788 
     99 H99        24.7430   24.4517    1.9888 H         1 UNK         0.2993 
    100 H100       24.7502   22.0201    1.6561 H         1 UNK         0.0949 
    101 H101       23.9544   20.8299   -0.4143 H         1 UNK         0.0767 
    102 H102       25.3477   21.4308   -1.3057 H         1 UNK         0.0767 
    103 H103       25.5696   20.3079    0.0344 H         1 UNK         0.0767 
    104 H104       26.6783   23.6670    0.2518 H         1 UNK         0.3013 
    105 H105       31.4025   29.3246   -1.0855 H         1 UNK         0.3121 
    106 H106       30.0940   31.6755   -0.0529 H         1 UNK         0.0774 
    107 H107       32.4454   32.3072    0.5521 H         1 UNK         0.0815 
    108 H108       32.3101   31.7913   -1.1182 H         1 UNK         0.0815 
    109 H109       32.9953   30.7047    0.0865 H         1 UNK         0.0815 
    110 H110       28.6370   30.4253    1.3446 H         1 UNK         0.2987 
    111 H111       29.2255   29.0805    3.6702 H         1 UNK         0.0949 
    112 H112       26.9203   31.0577    3.2050 H         1 UNK         0.0806 
    113 H113       26.9286   29.3796    2.6747 H         1 UNK         0.0806 
    114 H114       26.9352   29.7594    4.3906 H         1 UNK         0.0806 
    115 H115       29.8329   29.5242    5.6824 H         1 UNK         0.3010 
    116 H116       30.7040   30.4351    7.4780 H         1 UNK         0.0829 
    117 H117       29.4409   33.1167    6.7175 H         1 UNK         0.0813 
    118 H118       28.6799   31.8572    7.6877 H         1 UNK         0.0813 
    119 H119       30.1142   32.6809    8.2777 H         1 UNK         0.0813 
    120 H120       31.1367   32.6337    4.7186 H         1 UNK         0.3038 
    121 H121       33.5333   33.8788    5.4849 H         1 UNK         0.0769 
    122 H122       33.7063   34.4536    3.0299 H         1 UNK         0.0811 
    123 H123       32.3848   33.3401    2.6966 H         1 UNK         0.0811 
    124 H124       32.1105   34.7648    3.6939 H         1 UNK         0.0811 
    125 H125       33.1476   30.9853    3.3316 H         1 UNK         0.3204 
    126 H126       36.0685   30.4609    3.4839 H         1 UNK         0.0748 
    127 H127       33.8164   29.0351    1.9971 H         1 UNK         0.0771 
    128 H128       34.9657   30.1797    1.3002 H         1 UNK         0.0771 
    129 H129       35.5209   28.6224    1.8913 H         1 UNK         0.0771 
    130 H130       33.0469   29.3753    4.9527 H         1 UNK         0.2980 
    131 H131       34.0054   26.8322    5.8246 H         1 UNK         0.0545 
    132 H132       34.1167   30.0548    7.4723 H         1 UNK         0.3459 
    133 H133       35.0205   29.4339    8.8338 H         1 UNK         0.3459 
    134 H134       31.9500   26.6439    7.1347 H         1 UNK         0.0616 
    135 H135       31.6483   28.3538    7.0126 H         1 UNK         0.0616 
    136 H136       32.3608   25.1801    5.1788 H         1 UNK         0.0634 
    137 H137       30.6856   24.8932    4.7831 H         1 UNK         0.0634 
@<TRIPOS>BOND
     1    1    2 1    
     2    1   72 1    
     3    1   73 1    
     4    1   74 1    
     5    2    3 2    
     6    2    4 am   BACKBONE|DICT|INTERRES
     7    4    5 1    
     8    4   75 1    
     9    5    6 1    
    10    5   35 1    
    11    5   76 1    
    12    6    7 1    
    13    6   77 1    
    14    6   78 1    
    15    7    8 1    
    16    8    9 1    
    17    8   79 1    
    18    8   80 1    
    19    9   10 ar   
    20    9   14 ar   
    21   10   11 ar   
    22   10   81 1    
    23   11   12 ar   
    24   11   71 1    
    25   12   13 ar   
    26   12   82 1    
    27   13   14 ar   
    28   13   15 1    
    29   14   83 1    
    30   15   16 1    
    31   15   84 1    
    32   15   85 1    
    33   16   17 1    
    34   17   18 1    
    35   17   86 1    
    36   17   87 1    
    37   18   19 1    
    38   18   37 1    
    39   18   88 1    
    40   19   20 am   BACKBONE|DICT|INTERRES
    41   19   89 1    
    42   20   21 2    
    43   20   22 1    
    44   22   23 1    
    45   22   24 1    
    46   22   90 1    
    47   23   91 1    
    48   23   92 1    
    49   23   93 1    
    50   24   25 am   BACKBONE|DICT|INTERRES
    51   24   94 1    
    52   25   26 2    
    53   25   27 1    
    54   27   28 1    
    55   27   29 1    
    56   27   95 1    
    57   28   96 1    
    58   28   97 1    
    59   28   98 1    
    60   29   30 am   BACKBONE|DICT|INTERRES
    61   29   99 1    
    62   30   31 2    
    63   30   32 1    
    64   32   33 1    
    65   32   34 1    
    66   32  100 1    
    67   33  101 1    
    68   33  102 1    
    69   33  103 1    
    70   34   35 am   BACKBONE|DICT|INTERRES
    71   34  104 1    
    72   35   36 2    
    73   37   38 2    
    74   37   39 am   BACKBONE|DICT|INTERRES
    75   39   40 1    
    76   39  105 1    
    77   40   41 1    
    78   40   42 1    
    79   40  106 1    
    80   41  107 1    
    81   41  108 1    
    82   41  109 1    
    83   42   43 2    
    84   42   44 am   BACKBONE|DICT|INTERRES
    85   44   45 1    
    86   44  110 1    
    87   45   46 1    
    88   45   47 1    
    89   45  111 1    
    90   46  112 1    
    91   46  113 1    
    92   46  114 1    
    93   47   48 2    
    94   47   49 am   BACKBONE|DICT|INTERRES
    95   49   50 1    
    96   49  115 1    
    97   50   51 1    
    98   50   52 1    
    99   50  116 1    
   100   51  117 1    
   101   51  118 1    
   102   51  119 1    
   103   52   53 2    
   104   52   54 am   BACKBONE|DICT|INTERRES
   105   54   55 1    
   106   54  120 1    
   107   55   56 1    
   108   55   57 1    
   109   55  121 1    
   110   56  122 1    
   111   56  123 1    
   112   56  124 1    
   113   57   58 2    
   114   57   59 am   BACKBONE|DICT|INTERRES
   115   59   60 1    
   116   59  125 1    
   117   60   61 1    
   118   60   62 1    
   119   60  126 1    
   120   61  127 1    
   121   61  128 1    
   122   61  129 1    
   123   62   63 2    
   124   62   64 am   BACKBONE|DICT|INTERRES
   125   64   65 1    
   126   64  130 1    
   127   65   66 1    
   128   65   69 1    
   129   65  131 1    
   130   66   67 am   BACKBONE|DICT|INTERRES
   131   66   68 2    
   132   67  132 1    
   133   67  133 1    
   134   69   70 1    
   135   69  134 1    
   136   69  135 1    
   137   70   71 1    
   138   71  136 1    
   139   71  137 1    
@<TRIPOS>SUBSTRUCTURE
     1 UNK         1 GROUP             0       ****    0 ROOT    
