@<TRIPOS>MOLECULE
3R136
137   139    1
SMALL
USER_CHARGES


@<TRIPOS>ATOM
      1 CA         30.8282   26.8597   -3.0963 C.3       0 UNK        -0.1979 
      2 C          30.1875   25.9450   -2.0647 C.2       0 UNK         0.4864 
      3 O          28.9912   26.0666   -1.8011 O.2       0 UNK        -0.5359 
      4 N          30.9688   25.0166   -1.4952 N.am      1 UNK        -0.4318 
      5 CA         30.6146   24.0868   -0.4074 C.3       1 UNK         0.0824 
      6 C6         31.8159   23.1719   -0.0643 C.3       12 UNK        -0.0944 
      7 S7         33.2214   24.1027    0.6329 S.3       12 UNK        -0.2672 
      8 C8         33.2638   23.4651    2.3386 C.3       12 UNK         0.0333 
      9 C9         32.2167   24.1292    3.2211 C.ar      12 UNK        -0.0807 
     10 C10        32.5523   25.2633    3.9640 C.ar      12 UNK        -0.0894 
     11 C11        31.6110   25.8716    4.7993 C.ar      12 UNK        -0.0804 
     12 C12        30.3261   25.3312    4.8966 C.ar      12 UNK        -0.0824 
     13 C13        29.9716   24.2065    4.1455 C.ar      12 UNK        -0.0762 
     14 C14        30.9225   23.6070    3.3136 C.ar      12 UNK        -0.0782 
     15 C15        28.5663   23.6293    4.2351 C.3       12 UNK         0.0230 
     16 S16        27.4124   24.4748    3.1068 S.3       12 UNK        -0.2608 
     17 C17        26.9445   25.9539    4.0692 C.3       12 UNK        -0.0989 
     18 CA         27.5692   27.2552    3.5110 C.3       5 UNK         0.0716 
     19 N          27.2117   27.4843    2.1074 N.am      5 UNK        -0.4135 
     20 C          27.6726   28.4773    1.3370 C.2       4 UNK         0.5031 
     21 O          28.4672   29.3266    1.7458 O.2       4 UNK        -0.5229 
     22 CA         27.1585   28.5497   -0.1147 C.3       4 UNK         0.0329 
     23 CB         28.1706   29.2244   -1.0596 C.3       4 UNK        -0.2001 
     24 N          26.7813   27.2457   -0.6747 N.am      4 UNK        -0.4303 
     25 C          25.5965   26.6474   -0.4947 C.2       3 UNK         0.5044 
     26 O          24.7428   27.0835    0.2781 O.2       3 UNK        -0.5152 
     27 CA         25.2842   25.3695   -1.2881 C.3       3 UNK         0.0319 
     28 CB         24.5143   25.7223   -2.5753 C.3       3 UNK        -0.2001 
     29 N          26.4541   24.5432   -1.6151 N.am      3 UNK        -0.4354 
     30 C          26.3750   23.2194   -1.8359 C.2       2 UNK         0.4964 
     31 O          25.3304   22.5749   -1.7263 O.2       2 UNK        -0.5047 
     32 CA         27.6446   22.4665   -2.2808 C.3       2 UNK         0.0288 
     33 CB         27.6372   22.2622   -3.8051 C.3       2 UNK        -0.2113 
     34 N          28.8903   23.1270   -1.8991 N.am      2 UNK        -0.4145 
     35 C          29.3531   23.2237   -0.6460 C.2       1 UNK         0.5006 
     36 O          28.8248   22.6589    0.3123 O.2       1 UNK        -0.5103 
     37 C          27.1996   28.4560    4.4050 C.2       5 UNK         0.5055 
     38 O          28.0047   28.8600    5.2442 O.2       5 UNK        -0.5220 
     39 N          26.0156   29.0404    4.1649 N.am      6 UNK        -0.4450 
     40 CA         25.5160   30.2414    4.8432 C.3       6 UNK         0.0367 
     41 CB         24.0277   30.4270    4.5065 C.3       6 UNK        -0.1929 
     42 C          26.3058   31.5201    4.5033 C.2       6 UNK         0.5070 
     43 O          26.2931   32.4619    5.2954 O.2       6 UNK        -0.5237 
     44 N          26.9898   31.5275    3.3510 N.am      7 UNK        -0.4739 
     45 CA         27.8934   32.5944    2.9128 C.3       7 UNK         0.0276 
     46 CB         27.7681   32.7561    1.3884 C.3       7 UNK        -0.1927 
     47 C          29.3550   32.3277    3.3259 C.2       7 UNK         0.5013 
     48 O          30.2311   33.1031    2.9413 O.2       7 UNK        -0.5193 
     49 N          29.5914   31.2526    4.0957 N.am      8 UNK        -0.4253 
     50 CA         30.8766   30.7994    4.6317 C.3       8 UNK         0.0242 
     51 CB         31.4603   31.8413    5.6118 C.3       8 UNK        -0.2000 
     52 C          31.8729   30.3628    3.5399 C.2       8 UNK         0.4948 
     53 O          33.0632   30.6586    3.6711 O.2       8 UNK        -0.5275 
     54 N          31.3663   29.6224    2.5344 N.am      9 UNK        -0.4246 
     55 CA         32.0191   29.0740    1.3285 C.3       9 UNK         0.0261 
     56 CB         31.3982   27.7039    0.9904 C.3       9 UNK        -0.1959 
     57 C          33.5533   28.9526    1.3473 C.2       9 UNK         0.5033 
     58 O          34.2243   29.5909    0.5348 O.2       9 UNK        -0.5390 
     59 N          34.0648   28.1430    2.2803 N.am      10 UNK        -0.4215 
     60 CA         35.4909   27.9567    2.5491 C.3       10 UNK         0.0240 
     61 CB         35.9559   26.6188    1.9424 C.3       10 UNK        -0.1982 
     62 C          35.7823   28.0624    4.0570 C.2       10 UNK         0.4970 
     63 O          36.7363   27.4440    4.5316 O.2       10 UNK        -0.4916 
     64 N          34.9561   28.8291    4.7810 N.am      11 UNK        -0.4279 
     65 CA         35.0756   29.0753    6.2281 C.3       11 UNK         0.1003 
     66 C          35.4298   30.5536    6.5478 C.2       11 UNK         0.5709 
     67 N          35.1866   31.5060    5.6534 N.am      11 UNK        -0.7358 
     68 O          35.9501   30.8394    7.6235 O.2       11 UNK        -0.4999 
     69 C69        33.8051   28.6416    7.0108 C.3       12 UNK        -0.0954 
     70 S70        33.3351   26.9011    6.7278 S.3       12 UNK        -0.2268 
     71 C71        31.9683   27.1411    5.5531 C.3       12 UNK         0.0203 
     72 H72        30.8285   27.8878   -2.7362 H         1 UNK         0.0888 
     73 H73        31.8579   26.5746   -3.3109 H         1 UNK         0.0888 
     74 H74        30.2651   26.8251   -4.0284 H         1 UNK         0.0888 
     75 H75        31.9398   24.9730   -1.7713 H         1 UNK         0.3017 
     76 H76        30.3880   24.7008    0.4672 H         1 UNK         0.0873 
     77 H77        32.1621   22.6503   -0.9586 H         1 UNK         0.0745 
     78 H78        31.5298   22.3849    0.6348 H         1 UNK         0.0745 
     79 H79        33.1339   22.3818    2.3395 H         1 UNK         0.0705 
     80 H80        34.2583   23.6422    2.7503 H         1 UNK         0.0705 
     81 H81        33.5518   25.6689    3.8997 H         1 UNK         0.1334 
     82 H82        29.5957   25.7974    5.5429 H         1 UNK         0.1417 
     83 H83        30.6504   22.7318    2.7402 H         1 UNK         0.1562 
     84 H84        28.1979   23.6753    5.2609 H         1 UNK         0.0748 
     85 H85        28.5852   22.5701    3.9734 H         1 UNK         0.0748 
     86 H86        27.2217   25.8110    5.1151 H         1 UNK         0.0940 
     87 H87        25.8547   26.0198    4.0612 H         1 UNK         0.0940 
     88 H88        28.6559   27.1569    3.5432 H         1 UNK         0.0703 
     89 H89        26.5537   26.8350    1.6993 H         1 UNK         0.3081 
     90 H90        26.2703   29.1845   -0.0912 H         1 UNK         0.0719 
     91 H91        29.1163   28.6863   -1.0904 H         1 UNK         0.0809 
     92 H92        27.7858   29.2803   -2.0778 H         1 UNK         0.0809 
     93 H93        28.3913   30.2439   -0.7458 H         1 UNK         0.0809 
     94 H94        27.4949   26.8024   -1.2514 H         1 UNK         0.2990 
     95 H95        24.6204   24.7854   -0.6465 H         1 UNK         0.0690 
     96 H96        23.6497   26.3511   -2.3572 H         1 UNK         0.0788 
     97 H97        24.1414   24.8288   -3.0762 H         1 UNK         0.0788 
     98 H98        25.1438   26.2645   -3.2819 H         1 UNK         0.0788 
     99 H99        27.3533   25.0086   -1.7019 H         1 UNK         0.2993 
    100 H100       27.6223   21.4842   -1.8035 H         1 UNK         0.0949 
    101 H101       28.4876   21.6621   -4.1298 H         1 UNK         0.0767 
    102 H102       26.7340   21.7402   -4.1248 H         1 UNK         0.0767 
    103 H103       27.6707   23.2125   -4.3398 H         1 UNK         0.0767 
    104 H104       29.3796   23.6331   -2.6225 H         1 UNK         0.3013 
    105 H105       25.4229   28.6466    3.4477 H         1 UNK         0.3121 
    106 H106       25.6065   30.0809    5.9198 H         1 UNK         0.0774 
    107 H107       23.6172   31.2973    5.0208 H         1 UNK         0.0815 
    108 H108       23.8702   30.5769    3.4376 H         1 UNK         0.0815 
    109 H109       23.4387   29.5637    4.8167 H         1 UNK         0.0815 
    110 H110       26.9891   30.6929    2.7797 H         1 UNK         0.2987 
    111 H111       27.5985   33.5384    3.3762 H         1 UNK         0.0949 
    112 H112       28.1214   31.8707    0.8623 H         1 UNK         0.0806 
    113 H113       26.7356   32.9374    1.0899 H         1 UNK         0.0806 
    114 H114       28.3597   33.6012    1.0340 H         1 UNK         0.0806 
    115 H115       28.7995   30.6693    4.3395 H         1 UNK         0.3010 
    116 H116       30.6543   29.9026    5.2108 H         1 UNK         0.0829 
    117 H117       31.7757   32.7500    5.0983 H         1 UNK         0.0813 
    118 H118       30.7322   32.1215    6.3729 H         1 UNK         0.0813 
    119 H119       32.3333   31.4504    6.1326 H         1 UNK         0.0813 
    120 H120       30.3569   29.5084    2.5308 H         1 UNK         0.3038 
    121 H121       31.7711   29.7581    0.5151 H         1 UNK         0.0769 
    122 H122       31.4143   27.0237    1.8423 H         1 UNK         0.0811 
    123 H123       31.9375   27.2158    0.1775 H         1 UNK         0.0811 
    124 H124       30.3650   27.7980    0.6679 H         1 UNK         0.0811 
    125 H125       33.4254   27.6663    2.8980 H         1 UNK         0.3204 
    126 H126       36.0637   28.7593    2.0799 H         1 UNK         0.0748 
    127 H127       37.0342   26.4925    2.0469 H         1 UNK         0.0771 
    128 H128       35.4787   25.7679    2.4275 H         1 UNK         0.0771 
    129 H129       35.7275   26.5660    0.8776 H         1 UNK         0.0771 
    130 H130       34.2516   29.3817    4.2991 H         1 UNK         0.2980 
    131 H131       35.9052   28.4874    6.6248 H         1 UNK         0.0545 
    132 H132       35.4341   32.4575    5.8730 H         1 UNK         0.3459 
    133 H133       34.6887   31.3010    4.7963 H         1 UNK         0.3459 
    134 H134       33.9677   28.7620    8.0834 H         1 UNK         0.0616 
    135 H135       32.9598   29.2849    6.7639 H         1 UNK         0.0616 
    136 H136       31.1047   27.5389    6.0886 H         1 UNK         0.0634 
    137 H137       32.2563   27.8926    4.8221 H         1 UNK         0.0634 
@<TRIPOS>BOND
     1    1    2 1    
     2    1   72 1    
     3    1   73 1    
     4    1   74 1    
     5    2    3 2    
     6    2    4 am   BACKBONE|DICT|INTERRES
     7    4    5 1    
     8    4   75 1    
     9    5    6 1    
    10    5   35 1    
    11    5   76 1    
    12    6    7 1    
    13    6   77 1    
    14    6   78 1    
    15    7    8 1    
    16    8    9 1    
    17    8   79 1    
    18    8   80 1    
    19    9   10 ar   
    20    9   14 ar   
    21   10   11 ar   
    22   10   81 1    
    23   11   12 ar   
    24   11   71 1    
    25   12   13 ar   
    26   12   82 1    
    27   13   14 ar   
    28   13   15 1    
    29   14   83 1    
    30   15   16 1    
    31   15   84 1    
    32   15   85 1    
    33   16   17 1    
    34   17   18 1    
    35   17   86 1    
    36   17   87 1    
    37   18   19 1    
    38   18   37 1    
    39   18   88 1    
    40   19   20 am   BACKBONE|DICT|INTERRES
    41   19   89 1    
    42   20   21 2    
    43   20   22 1    
    44   22   23 1    
    45   22   24 1    
    46   22   90 1    
    47   23   91 1    
    48   23   92 1    
    49   23   93 1    
    50   24   25 am   BACKBONE|DICT|INTERRES
    51   24   94 1    
    52   25   26 2    
    53   25   27 1    
    54   27   28 1    
    55   27   29 1    
    56   27   95 1    
    57   28   96 1    
    58   28   97 1    
    59   28   98 1    
    60   29   30 am   BACKBONE|DICT|INTERRES
    61   29   99 1    
    62   30   31 2    
    63   30   32 1    
    64   32   33 1    
    65   32   34 1    
    66   32  100 1    
    67   33  101 1    
    68   33  102 1    
    69   33  103 1    
    70   34   35 am   BACKBONE|DICT|INTERRES
    71   34  104 1    
    72   35   36 2    
    73   37   38 2    
    74   37   39 am   BACKBONE|DICT|INTERRES
    75   39   40 1    
    76   39  105 1    
    77   40   41 1    
    78   40   42 1    
    79   40  106 1    
    80   41  107 1    
    81   41  108 1    
    82   41  109 1    
    83   42   43 2    
    84   42   44 am   BACKBONE|DICT|INTERRES
    85   44   45 1    
    86   44  110 1    
    87   45   46 1    
    88   45   47 1    
    89   45  111 1    
    90   46  112 1    
    91   46  113 1    
    92   46  114 1    
    93   47   48 2    
    94   47   49 am   BACKBONE|DICT|INTERRES
    95   49   50 1    
    96   49  115 1    
    97   50   51 1    
    98   50   52 1    
    99   50  116 1    
   100   51  117 1    
   101   51  118 1    
   102   51  119 1    
   103   52   53 2    
   104   52   54 am   BACKBONE|DICT|INTERRES
   105   54   55 1    
   106   54  120 1    
   107   55   56 1    
   108   55   57 1    
   109   55  121 1    
   110   56  122 1    
   111   56  123 1    
   112   56  124 1    
   113   57   58 2    
   114   57   59 am   BACKBONE|DICT|INTERRES
   115   59   60 1    
   116   59  125 1    
   117   60   61 1    
   118   60   62 1    
   119   60  126 1    
   120   61  127 1    
   121   61  128 1    
   122   61  129 1    
   123   62   63 2    
   124   62   64 am   BACKBONE|DICT|INTERRES
   125   64   65 1    
   126   64  130 1    
   127   65   66 1    
   128   65   69 1    
   129   65  131 1    
   130   66   67 am   BACKBONE|DICT|INTERRES
   131   66   68 2    
   132   67  132 1    
   133   67  133 1    
   134   69   70 1    
   135   69  134 1    
   136   69  135 1    
   137   70   71 1    
   138   71  136 1    
   139   71  137 1    
@<TRIPOS>SUBSTRUCTURE
     1 UNK         1 GROUP             0       ****    0 ROOT    
