@<TRIPOS>MOLECULE
3R136
137   139    1
SMALL
USER_CHARGES


@<TRIPOS>ATOM
      1 CA         25.6986   19.9189   -1.7231 C.3       0 UNK        -0.1979 
      2 C          27.1910   20.0433   -1.4529 C.2       0 UNK         0.4864 
      3 O          27.9968   19.5010   -2.2115 O.2       0 UNK        -0.5359 
      4 N          27.5640   20.7454   -0.3750 N.am      1 UNK        -0.4318 
      5 CA         28.9535   21.0302   -0.0045 C.3       1 UNK         0.0824 
      6 C6         29.0579   21.4553    1.4826 C.3       12 UNK        -0.0944 
      7 S7         30.6771   21.0413    2.2155 S.3       12 UNK        -0.2672 
      8 C8         30.3167   21.1868    3.9966 C.3       12 UNK         0.0333 
      9 C9         30.2002   22.6425    4.4234 C.ar      12 UNK        -0.0807 
     10 C10        31.3221   23.3331    4.8912 C.ar      12 UNK        -0.0894 
     11 C11        31.2293   24.6836    5.2424 C.ar      12 UNK        -0.0804 
     12 C12        30.0047   25.3474    5.1127 C.ar      12 UNK        -0.0824 
     13 C13        28.8760   24.6644    4.6466 C.ar      12 UNK        -0.0762 
     14 C14        28.9750   23.3072    4.3289 C.ar      12 UNK        -0.0782 
     15 C15        27.5585   25.3945    4.4393 C.3       12 UNK         0.0230 
     16 S16        27.2016   25.5596    2.6622 S.3       12 UNK        -0.2608 
     17 C17        25.8887   26.8213    2.6656 C.3       12 UNK        -0.0989 
     18 CA         26.4627   28.2577    2.6071 C.3       5 UNK         0.0716 
     19 N          27.3702   28.4542    1.4726 N.am      5 UNK        -0.4135 
     20 C          28.1328   29.5345    1.2654 C.2       4 UNK         0.5031 
     21 O          28.1541   30.5149    2.0147 O.2       4 UNK        -0.5229 
     22 CA         29.0800   29.4705    0.0547 C.3       4 UNK         0.0329 
     23 CB         29.8217   30.7983   -0.1943 C.3       4 UNK        -0.2001 
     24 N          30.0627   28.3987    0.2347 N.am      4 UNK        -0.4303 
     25 C          29.8715   27.1162   -0.0921 C.2       3 UNK         0.5044 
     26 O          28.8362   26.6889   -0.6104 O.2       3 UNK        -0.5152 
     27 CA         31.0139   26.1520    0.2445 C.3       3 UNK         0.0319 
     28 CB         30.9226   25.6747    1.7031 C.3       3 UNK        -0.2001 
     29 N          30.9452   24.9947   -0.6409 N.am      3 UNK        -0.4354 
     30 C          31.9831   24.2479   -1.0302 C.2       2 UNK         0.4964 
     31 O          33.1493   24.4714   -0.7000 O.2       2 UNK        -0.5047 
     32 CA         31.6501   23.0253   -1.9070 C.3       2 UNK         0.0288 
     33 CB         32.9070   22.3377   -2.4740 C.3       2 UNK        -0.2113 
     34 N          30.8775   22.0426   -1.1441 N.am      2 UNK        -0.4145 
     35 C          29.5564   22.1028   -0.9362 C.2       1 UNK         0.5006 
     36 O          28.8331   22.9824   -1.4139 O.2       1 UNK        -0.5103 
     37 C          25.3275   29.2988    2.6091 C.2       5 UNK         0.5055 
     38 O          24.8129   29.6442    1.5425 O.2       5 UNK        -0.5220 
     39 N          24.9745   29.7749    3.8131 N.am      6 UNK        -0.4450 
     40 CA         24.0420   30.8788    4.0910 C.3       6 UNK         0.0367 
     41 CB         22.6092   30.5411    3.6242 C.3       6 UNK        -0.1929 
     42 C          24.5353   32.2456    3.5658 C.2       6 UNK         0.5070 
     43 O          23.7297   33.1613    3.3908 O.2       6 UNK        -0.5237 
     44 N          25.8491   32.3664    3.3448 N.am      7 UNK        -0.4739 
     45 CA         26.5402   33.5673    2.8939 C.3       7 UNK         0.0276 
     46 CB         26.5611   33.6137    1.3500 C.3       7 UNK        -0.1927 
     47 C          27.9228   33.6003    3.5651 C.2       7 UNK         0.5013 
     48 O          27.9955   33.4929    4.7909 O.2       7 UNK        -0.5193 
     49 N          28.9904   33.7597    2.7736 N.am      8 UNK        -0.4253 
     50 CA         30.3686   33.9199    3.2445 C.3       8 UNK         0.0242 
     51 CB         31.2051   34.5317    2.1073 C.3       8 UNK        -0.2000 
     52 C          31.0402   32.6302    3.7516 C.2       8 UNK         0.4948 
     53 O          32.0983   32.7298    4.3762 O.2       8 UNK        -0.5275 
     54 N          30.4764   31.4530    3.4373 N.am      9 UNK        -0.4246 
     55 CA         31.0233   30.1004    3.6316 C.3       9 UNK         0.0261 
     56 CB         31.2645   29.7650    5.1169 C.3       9 UNK        -0.1959 
     57 C          32.2693   29.8256    2.7722 C.2       9 UNK         0.5033 
     58 O          32.2462   28.8957    1.9673 O.2       9 UNK        -0.5390 
     59 N          33.3124   30.6496    2.9422 N.am      10 UNK        -0.4215 
     60 CA         34.6207   30.6108    2.2725 C.3       10 UNK         0.0240 
     61 CB         34.4687   30.8079    0.7485 C.3       10 UNK        -0.1982 
     62 C          35.4761   29.3754    2.6270 C.2       10 UNK         0.4970 
     63 O          36.4523   29.0925    1.9300 O.2       10 UNK        -0.4916 
     64 N          35.1118   28.6753    3.7070 N.am      11 UNK        -0.4279 
     65 CA         35.8187   27.5092    4.2490 C.3       11 UNK         0.1003 
     66 C          37.1499   27.8993    4.9460 C.2       11 UNK         0.5709 
     67 N          38.1365   27.0134    4.9362 N.am      11 UNK        -0.7358 
     68 O          37.2845   28.9763    5.5253 O.2       11 UNK        -0.4999 
     69 C69        34.9040   26.7014    5.2051 C.3       12 UNK        -0.0954 
     70 S70        33.4361   26.0545    4.3427 S.3       12 UNK        -0.2268 
     71 C71        32.4606   25.4256    5.7383 C.3       12 UNK         0.0203 
     72 H72        25.4567   20.3479   -2.6951 H         1 UNK         0.0888 
     73 H73        25.4045   18.8696   -1.7303 H         1 UNK         0.0888 
     74 H74        25.1031   20.4325   -0.9684 H         1 UNK         0.0888 
     75 H75        26.8585   21.1999    0.1866 H         1 UNK         0.3017 
     76 H76        29.5146   20.1029   -0.1441 H         1 UNK         0.0873 
     77 H77        28.8577   22.5216    1.6091 H         1 UNK         0.0745 
     78 H78        28.3000   20.9347    2.0706 H         1 UNK         0.0745 
     79 H79        29.4028   20.6420    4.2385 H         1 UNK         0.0705 
     80 H80        31.1164   20.6995    4.5564 H         1 UNK         0.0705 
     81 H81        32.2741   22.8252    4.9642 H         1 UNK         0.1334 
     82 H82        29.9378   26.3991    5.3551 H         1 UNK         0.1417 
     83 H83        28.1037   22.7818    3.9627 H         1 UNK         0.1562 
     84 H84        27.5937   26.3827    4.9001 H         1 UNK         0.0748 
     85 H85        26.7492   24.8488    4.9267 H         1 UNK         0.0748 
     86 H86        25.2644   26.6835    3.5509 H         1 UNK         0.0940 
     87 H87        25.2413   26.6338    1.8064 H         1 UNK         0.0940 
     88 H88        27.0622   28.4167    3.5061 H         1 UNK         0.0703 
     89 H89        27.4504   27.6812    0.8234 H         1 UNK         0.3081 
     90 H90        28.4692   29.2638   -0.8268 H         1 UNK         0.0719 
     91 H91        30.4852   31.0586    0.6294 H         1 UNK         0.0809 
     92 H92        30.4251   30.7470   -1.1006 H         1 UNK         0.0809 
     93 H93        29.1179   31.6216   -0.3217 H         1 UNK         0.0809 
     94 H94        30.9150   28.6381    0.7410 H         1 UNK         0.2990 
     95 H95        31.9596   26.6773    0.0926 H         1 UNK         0.0690 
     96 H96        30.9091   26.5153    2.3977 H         1 UNK         0.0788 
     97 H97        31.7750   25.0499    1.9694 H         1 UNK         0.0788 
     98 H98        30.0207   25.0888    1.8784 H         1 UNK         0.0788 
     99 H99        30.0113   24.7558   -0.9620 H         1 UNK         0.2993 
    100 H100       31.0549   23.3787   -2.7523 H         1 UNK         0.0949 
    101 H101       33.5036   23.0380   -3.0602 H         1 UNK         0.0767 
    102 H102       33.5472   21.9452   -1.6827 H         1 UNK         0.0767 
    103 H103       32.6422   21.5099   -3.1322 H         1 UNK         0.0767 
    104 H104       31.4090   21.3290   -0.6653 H         1 UNK         0.3013 
    105 H105       25.4513   29.4086    4.6262 H         1 UNK         0.3121 
    106 H106       24.0123   30.9770    5.1773 H         1 UNK         0.0774 
    107 H107       21.8964   31.2829    3.9863 H         1 UNK         0.0815 
    108 H108       22.5287   30.5224    2.5372 H         1 UNK         0.0815 
    109 H109       22.2854   29.5718    4.0028 H         1 UNK         0.0815 
    110 H110       26.4479   31.5703    3.5206 H         1 UNK         0.2987 
    111 H111       26.0062   34.4482    3.2571 H         1 UNK         0.0949 
    112 H112       27.0835   32.7574    0.9223 H         1 UNK         0.0806 
    113 H113       25.5477   33.6085    0.9480 H         1 UNK         0.0806 
    114 H114       27.0391   34.5228    0.9830 H         1 UNK         0.0806 
    115 H115       28.8411   33.8151    1.7766 H         1 UNK         0.3010 
    116 H116       30.3625   34.6246    4.0791 H         1 UNK         0.0829 
    117 H117       30.7989   35.4909    1.7857 H         1 UNK         0.0813 
    118 H118       32.2324   34.7111    2.4281 H         1 UNK         0.0813 
    119 H119       31.2470   33.8742    1.2377 H         1 UNK         0.0813 
    120 H120       29.6021   31.4697    2.9179 H         1 UNK         0.3038 
    121 H121       30.2519   29.4137    3.2828 H         1 UNK         0.0769 
    122 H122       32.0343   30.3911    5.5677 H         1 UNK         0.0811 
    123 H123       31.5836   28.7280    5.2314 H         1 UNK         0.0811 
    124 H124       30.3518   29.8883    5.6997 H         1 UNK         0.0811 
    125 H125       33.1698   31.4158    3.5995 H         1 UNK         0.3204 
    126 H126       35.1725   31.4694    2.6575 H         1 UNK         0.0748 
    127 H127       35.4397   30.9513    0.2731 H         1 UNK         0.0771 
    128 H128       34.0004   29.9460    0.2723 H         1 UNK         0.0771 
    129 H129       33.8652   31.6865    0.5202 H         1 UNK         0.0771 
    130 H130       34.3064   28.9836    4.2275 H         1 UNK         0.2980 
    131 H131       36.0725   26.8647    3.4046 H         1 UNK         0.0545 
    132 H132       38.0335   26.1227    4.4750 H         1 UNK         0.3459 
    133 H133       39.0044   27.2419    5.3954 H         1 UNK         0.3459 
    134 H134       35.4423   25.8515    5.6288 H         1 UNK         0.0616 
    135 H135       34.5821   27.3188    6.0460 H         1 UNK         0.0616 
    136 H136       33.0781   24.7594    6.3427 H         1 UNK         0.0634 
    137 H137       32.1727   26.2568    6.3837 H         1 UNK         0.0634 
@<TRIPOS>BOND
     1    1    2 1    
     2    1   72 1    
     3    1   73 1    
     4    1   74 1    
     5    2    3 2    
     6    2    4 am   BACKBONE|DICT|INTERRES
     7    4    5 1    
     8    4   75 1    
     9    5    6 1    
    10    5   35 1    
    11    5   76 1    
    12    6    7 1    
    13    6   77 1    
    14    6   78 1    
    15    7    8 1    
    16    8    9 1    
    17    8   79 1    
    18    8   80 1    
    19    9   10 ar   
    20    9   14 ar   
    21   10   11 ar   
    22   10   81 1    
    23   11   12 ar   
    24   11   71 1    
    25   12   13 ar   
    26   12   82 1    
    27   13   14 ar   
    28   13   15 1    
    29   14   83 1    
    30   15   16 1    
    31   15   84 1    
    32   15   85 1    
    33   16   17 1    
    34   17   18 1    
    35   17   86 1    
    36   17   87 1    
    37   18   19 1    
    38   18   37 1    
    39   18   88 1    
    40   19   20 am   BACKBONE|DICT|INTERRES
    41   19   89 1    
    42   20   21 2    
    43   20   22 1    
    44   22   23 1    
    45   22   24 1    
    46   22   90 1    
    47   23   91 1    
    48   23   92 1    
    49   23   93 1    
    50   24   25 am   BACKBONE|DICT|INTERRES
    51   24   94 1    
    52   25   26 2    
    53   25   27 1    
    54   27   28 1    
    55   27   29 1    
    56   27   95 1    
    57   28   96 1    
    58   28   97 1    
    59   28   98 1    
    60   29   30 am   BACKBONE|DICT|INTERRES
    61   29   99 1    
    62   30   31 2    
    63   30   32 1    
    64   32   33 1    
    65   32   34 1    
    66   32  100 1    
    67   33  101 1    
    68   33  102 1    
    69   33  103 1    
    70   34   35 am   BACKBONE|DICT|INTERRES
    71   34  104 1    
    72   35   36 2    
    73   37   38 2    
    74   37   39 am   BACKBONE|DICT|INTERRES
    75   39   40 1    
    76   39  105 1    
    77   40   41 1    
    78   40   42 1    
    79   40  106 1    
    80   41  107 1    
    81   41  108 1    
    82   41  109 1    
    83   42   43 2    
    84   42   44 am   BACKBONE|DICT|INTERRES
    85   44   45 1    
    86   44  110 1    
    87   45   46 1    
    88   45   47 1    
    89   45  111 1    
    90   46  112 1    
    91   46  113 1    
    92   46  114 1    
    93   47   48 2    
    94   47   49 am   BACKBONE|DICT|INTERRES
    95   49   50 1    
    96   49  115 1    
    97   50   51 1    
    98   50   52 1    
    99   50  116 1    
   100   51  117 1    
   101   51  118 1    
   102   51  119 1    
   103   52   53 2    
   104   52   54 am   BACKBONE|DICT|INTERRES
   105   54   55 1    
   106   54  120 1    
   107   55   56 1    
   108   55   57 1    
   109   55  121 1    
   110   56  122 1    
   111   56  123 1    
   112   56  124 1    
   113   57   58 2    
   114   57   59 am   BACKBONE|DICT|INTERRES
   115   59   60 1    
   116   59  125 1    
   117   60   61 1    
   118   60   62 1    
   119   60  126 1    
   120   61  127 1    
   121   61  128 1    
   122   61  129 1    
   123   62   63 2    
   124   62   64 am   BACKBONE|DICT|INTERRES
   125   64   65 1    
   126   64  130 1    
   127   65   66 1    
   128   65   69 1    
   129   65  131 1    
   130   66   67 am   BACKBONE|DICT|INTERRES
   131   66   68 2    
   132   67  132 1    
   133   67  133 1    
   134   69   70 1    
   135   69  134 1    
   136   69  135 1    
   137   70   71 1    
   138   71  136 1    
   139   71  137 1    
@<TRIPOS>SUBSTRUCTURE
     1 UNK         1 GROUP             0       ****    0 ROOT    
