@<TRIPOS>MOLECULE
3R136
137   139    1
SMALL
USER_CHARGES


@<TRIPOS>ATOM
      1 CA         31.0746   21.3668    2.7296 C.3       0 UNK        -0.1979 
      2 C          31.2801   21.8188    1.2917 C.2       0 UNK         0.4864 
      3 O          32.3794   21.6706    0.7554 O.2       0 UNK        -0.5359 
      4 N          30.2292   22.3514    0.6611 N.am      1 UNK        -0.4318 
      5 CA         30.2163   22.8027   -0.7283 C.3       1 UNK         0.0824 
      6 C6         30.8193   24.2265   -0.8989 C.3       12 UNK        -0.0944 
      7 S7         29.7802   25.5797   -0.2432 S.3       12 UNK        -0.2672 
      8 C8         30.8754   26.3823    0.9628 C.3       12 UNK         0.0333 
      9 C9         31.0563   25.5875    2.2470 C.ar      12 UNK        -0.0807 
     10 C10        32.3399   25.3245    2.7269 C.ar      12 UNK        -0.0894 
     11 C11        32.5229   24.7032    3.9642 C.ar      12 UNK        -0.0804 
     12 C12        31.4057   24.3188    4.7119 C.ar      12 UNK        -0.0824 
     13 C13        30.1101   24.5623    4.2414 C.ar      12 UNK        -0.0762 
     14 C14        29.9474   25.1860    2.9972 C.ar      12 UNK        -0.0782 
     15 C15        28.9237   24.1224    5.1009 C.3       12 UNK         0.0230 
     16 S16        27.3415   24.9752    4.7676 S.3       12 UNK        -0.2608 
     17 C17        27.6539   26.6718    5.3747 C.3       12 UNK        -0.0989 
     18 CA         27.7622   27.7232    4.2394 C.3       5 UNK         0.0716 
     19 N          26.6331   27.6461    3.3069 N.am      5 UNK        -0.4135 
     20 C          26.5212   28.3297    2.1619 C.2       4 UNK         0.5031 
     21 O          27.3716   29.1140    1.7342 O.2       4 UNK        -0.5229 
     22 CA         25.2168   28.1226    1.3738 C.3       4 UNK         0.0329 
     23 CB         24.3535   29.3945    1.4019 C.3       4 UNK        -0.2001 
     24 N          25.4806   27.7472   -0.0155 N.am      4 UNK        -0.4303 
     25 C          26.0045   26.5749   -0.3943 C.2       3 UNK         0.5044 
     26 O          26.2689   25.6586    0.3891 O.2       3 UNK        -0.5152 
     27 CA         26.2480   26.3897   -1.9000 C.3       3 UNK         0.0319 
     28 CB         27.2363   27.4332   -2.4612 C.3       3 UNK        -0.2001 
     29 N          26.7565   25.0397   -2.1307 N.am      3 UNK        -0.4354 
     30 C          26.7080   24.3567   -3.2791 C.2       2 UNK         0.4964 
     31 O          26.2169   24.8106   -4.3145 O.2       2 UNK        -0.5047 
     32 CA         27.3218   22.9399   -3.2750 C.3       2 UNK         0.0288 
     33 CB         27.5093   22.3714   -4.6952 C.3       2 UNK        -0.2113 
     34 N          28.6144   22.9139   -2.5826 N.am      2 UNK        -0.4145 
     35 C          28.7814   22.6698   -1.2763 C.2       1 UNK         0.5006 
     36 O          27.8529   22.3845   -0.5134 O.2       1 UNK        -0.5103 
     37 C          27.8994   29.1440    4.8218 C.2       5 UNK         0.5055 
     38 O          26.8911   29.8331    4.9999 O.2       5 UNK        -0.5220 
     39 N          29.1430   29.5608    5.0861 N.am      6 UNK        -0.4450 
     40 CA         29.6013   30.8813    5.5411 C.3       6 UNK         0.0367 
     41 CB         28.9911   31.2592    6.9046 C.3       6 UNK        -0.1929 
     42 C          29.4237   32.0153    4.5119 C.2       6 UNK         0.5070 
     43 O          30.2743   32.9039    4.4584 O.2       6 UNK        -0.5237 
     44 N          28.3493   31.9764    3.7127 N.am      7 UNK        -0.4739 
     45 CA         28.1134   32.8662    2.5751 C.3       7 UNK         0.0276 
     46 CB         26.6534   32.7401    2.1125 C.3       7 UNK        -0.1927 
     47 C          29.0910   32.5755    1.4249 C.2       7 UNK         0.5013 
     48 O          29.7156   33.5060    0.9133 O.2       7 UNK        -0.5193 
     49 N          29.2295   31.2920    1.0686 N.am      8 UNK        -0.4253 
     50 CA         30.2879   30.7850    0.1992 C.3       8 UNK         0.0242 
     51 CB         29.7198   29.6637   -0.6868 C.3       8 UNK        -0.2000 
     52 C          31.4504   30.2707    1.0626 C.2       8 UNK         0.4948 
     53 O          31.2239   29.8064    2.1834 O.2       8 UNK        -0.5275 
     54 N          32.6688   30.3420    0.5059 N.am      9 UNK        -0.4246 
     55 CA         33.9456   29.9713    1.1311 C.3       9 UNK         0.0261 
     56 CB         34.0328   28.4395    1.3283 C.3       9 UNK        -0.1959 
     57 C          34.2226   30.7919    2.4096 C.2       9 UNK         0.5033 
     58 O          33.9780   32.0007    2.4134 O.2       9 UNK        -0.5390 
     59 N          34.7436   30.1385    3.4536 N.am      10 UNK        -0.4215 
     60 CA         35.0190   30.7177    4.7691 C.3       10 UNK         0.0240 
     61 CB         36.4463   31.3006    4.7986 C.3       10 UNK        -0.1982 
     62 C          34.7701   29.6704    5.8677 C.2       10 UNK         0.4970 
     63 O          35.5053   29.6270    6.8555 O.2       10 UNK        -0.4916 
     64 N          33.7499   28.8309    5.6662 N.am      11 UNK        -0.4279 
     65 CA         33.3685   27.7175    6.5399 C.3       11 UNK         0.1003 
     66 C          31.8806   27.3419    6.3393 C.2       11 UNK         0.5709 
     67 N          31.3083   26.5775    7.2600 N.am      11 UNK        -0.7358 
     68 O          31.2371   27.7474    5.3732 O.2       11 UNK        -0.4999 
     69 C69        34.3349   26.4973    6.4493 C.3       12 UNK        -0.0954 
     70 S70        34.8406   26.0115    4.7591 S.3       12 UNK        -0.2268 
     71 C71        33.9315   24.4551    4.4826 C.3       12 UNK         0.0203 
     72 H72        30.1177   21.7041    3.1271 H         1 UNK         0.0888 
     73 H73        31.1069   20.2795    2.7903 H         1 UNK         0.0888 
     74 H74        31.8644   21.7671    3.3642 H         1 UNK         0.0888 
     75 H75        29.3248   22.4111    1.1123 H         1 UNK         0.3017 
     76 H76        30.8237   22.1049   -1.3091 H         1 UNK         0.0873 
     77 H77        31.8054   24.2669   -0.4336 H         1 UNK         0.0745 
     78 H78        30.9945   24.4317   -1.9559 H         1 UNK         0.0745 
     79 H79        31.8319   26.5927    0.4847 H         1 UNK         0.0705 
     80 H80        30.4459   27.3467    1.2317 H         1 UNK         0.0705 
     81 H81        33.2041   25.6316    2.1549 H         1 UNK         0.1334 
     82 H82        31.5454   23.8385    5.6706 H         1 UNK         0.1417 
     83 H83        28.9586   25.3843    2.6078 H         1 UNK         0.1562 
     84 H84        29.1642   24.2439    6.1581 H         1 UNK         0.0748 
     85 H85        28.7709   23.0541    4.9438 H         1 UNK         0.0748 
     86 H86        28.5631   26.6764    5.9772 H         1 UNK         0.0940 
     87 H87        26.8408   26.9301    6.0564 H         1 UNK         0.0940 
     88 H88        28.6659   27.5221    3.6618 H         1 UNK         0.0703 
     89 H89        25.8861   27.0256    3.5806 H         1 UNK         0.3081 
     90 H90        24.6456   27.3162    1.8392 H         1 UNK         0.0719 
     91 H91        24.8291   30.2170    0.8672 H         1 UNK         0.0809 
     92 H92        23.3778   29.2209    0.9478 H         1 UNK         0.0809 
     93 H93        24.1798   29.7276    2.4262 H         1 UNK         0.0809 
     94 H94        25.3149   28.4567   -0.7138 H         1 UNK         0.2990 
     95 H95        25.2851   26.4943   -2.4041 H         1 UNK         0.0690 
     96 H96        26.8661   28.4497   -2.3264 H         1 UNK         0.0788 
     97 H97        27.3981   27.2940   -3.5300 H         1 UNK         0.0788 
     98 H98        28.2066   27.3724   -1.9693 H         1 UNK         0.0788 
     99 H99        27.1172   24.5902   -1.2953 H         1 UNK         0.2993 
    100 H100       26.6133   22.2926   -2.7530 H         1 UNK         0.0949 
    101 H101       27.9228   21.3630   -4.6668 H         1 UNK         0.0767 
    102 H102       26.5566   22.3121   -5.2234 H         1 UNK         0.0767 
    103 H103       28.1776   22.9919   -5.2937 H         1 UNK         0.0767 
    104 H104       29.4176   23.1815   -3.1334 H         1 UNK         0.3013 
    105 H105       29.9014   28.8959    4.9295 H         1 UNK         0.3121 
    106 H106       30.6772   30.7699    5.6864 H         1 UNK         0.0774 
    107 H107       29.4350   32.1803    7.2843 H         1 UNK         0.0815 
    108 H108       27.9153   31.4237    6.8407 H         1 UNK         0.0815 
    109 H109       29.1699   30.4822    7.6478 H         1 UNK         0.0815 
    110 H110       27.6806   31.2285    3.8685 H         1 UNK         0.2987 
    111 H111       28.2802   33.8941    2.9051 H         1 UNK         0.0949 
    112 H112       26.4177   31.7237    1.7986 H         1 UNK         0.0806 
    113 H113       25.9602   33.0137    2.9081 H         1 UNK         0.0806 
    114 H114       26.4539   33.3988    1.2662 H         1 UNK         0.0806 
    115 H115       28.6756   30.5836    1.5433 H         1 UNK         0.3010 
    116 H116       30.6557   31.5833   -0.4490 H         1 UNK         0.0829 
    117 H117       28.9363   30.0413   -1.3437 H         1 UNK         0.0813 
    118 H118       30.4935   29.2276   -1.3199 H         1 UNK         0.0813 
    119 H119       29.2900   28.8566   -0.0941 H         1 UNK         0.0813 
    120 H120       32.7469   30.7621   -0.4098 H         1 UNK         0.3038 
    121 H121       34.7243   30.2547    0.4216 H         1 UNK         0.0769 
    122 H122       35.0296   28.1294    1.6441 H         1 UNK         0.0811 
    123 H123       33.8276   27.9165    0.3946 H         1 UNK         0.0811 
    124 H124       33.3190   28.0844    2.0727 H         1 UNK         0.0811 
    125 H125       34.9205   29.1468    3.3636 H         1 UNK         0.3204 
    126 H126       34.3122   31.5282    4.9601 H         1 UNK         0.0748 
    127 H127       36.6575   31.7771    5.7568 H         1 UNK         0.0771 
    128 H128       37.1986   30.5265    4.6430 H         1 UNK         0.0771 
    129 H129       36.5810   32.0589    4.0270 H         1 UNK         0.0771 
    130 H130       33.1424   28.9498    4.8657 H         1 UNK         0.2980 
    131 H131       33.4189   28.0989    7.5618 H         1 UNK         0.0545 
    132 H132       30.3414   26.3250    7.1529 H         1 UNK         0.3459 
    133 H133       31.8239   26.2536    8.0627 H         1 UNK         0.3459 
    134 H134       35.2536   26.7455    6.9823 H         1 UNK         0.0616 
    135 H135       33.9303   25.6325    6.9771 H         1 UNK         0.0616 
    136 H136       34.4735   23.8650    3.7425 H         1 UNK         0.0634 
    137 H137       33.9218   23.8611    5.3975 H         1 UNK         0.0634 
@<TRIPOS>BOND
     1    1    2 1    
     2    1   72 1    
     3    1   73 1    
     4    1   74 1    
     5    2    3 2    
     6    2    4 am   BACKBONE|DICT|INTERRES
     7    4    5 1    
     8    4   75 1    
     9    5    6 1    
    10    5   35 1    
    11    5   76 1    
    12    6    7 1    
    13    6   77 1    
    14    6   78 1    
    15    7    8 1    
    16    8    9 1    
    17    8   79 1    
    18    8   80 1    
    19    9   10 ar   
    20    9   14 ar   
    21   10   11 ar   
    22   10   81 1    
    23   11   12 ar   
    24   11   71 1    
    25   12   13 ar   
    26   12   82 1    
    27   13   14 ar   
    28   13   15 1    
    29   14   83 1    
    30   15   16 1    
    31   15   84 1    
    32   15   85 1    
    33   16   17 1    
    34   17   18 1    
    35   17   86 1    
    36   17   87 1    
    37   18   19 1    
    38   18   37 1    
    39   18   88 1    
    40   19   20 am   BACKBONE|DICT|INTERRES
    41   19   89 1    
    42   20   21 2    
    43   20   22 1    
    44   22   23 1    
    45   22   24 1    
    46   22   90 1    
    47   23   91 1    
    48   23   92 1    
    49   23   93 1    
    50   24   25 am   BACKBONE|DICT|INTERRES
    51   24   94 1    
    52   25   26 2    
    53   25   27 1    
    54   27   28 1    
    55   27   29 1    
    56   27   95 1    
    57   28   96 1    
    58   28   97 1    
    59   28   98 1    
    60   29   30 am   BACKBONE|DICT|INTERRES
    61   29   99 1    
    62   30   31 2    
    63   30   32 1    
    64   32   33 1    
    65   32   34 1    
    66   32  100 1    
    67   33  101 1    
    68   33  102 1    
    69   33  103 1    
    70   34   35 am   BACKBONE|DICT|INTERRES
    71   34  104 1    
    72   35   36 2    
    73   37   38 2    
    74   37   39 am   BACKBONE|DICT|INTERRES
    75   39   40 1    
    76   39  105 1    
    77   40   41 1    
    78   40   42 1    
    79   40  106 1    
    80   41  107 1    
    81   41  108 1    
    82   41  109 1    
    83   42   43 2    
    84   42   44 am   BACKBONE|DICT|INTERRES
    85   44   45 1    
    86   44  110 1    
    87   45   46 1    
    88   45   47 1    
    89   45  111 1    
    90   46  112 1    
    91   46  113 1    
    92   46  114 1    
    93   47   48 2    
    94   47   49 am   BACKBONE|DICT|INTERRES
    95   49   50 1    
    96   49  115 1    
    97   50   51 1    
    98   50   52 1    
    99   50  116 1    
   100   51  117 1    
   101   51  118 1    
   102   51  119 1    
   103   52   53 2    
   104   52   54 am   BACKBONE|DICT|INTERRES
   105   54   55 1    
   106   54  120 1    
   107   55   56 1    
   108   55   57 1    
   109   55  121 1    
   110   56  122 1    
   111   56  123 1    
   112   56  124 1    
   113   57   58 2    
   114   57   59 am   BACKBONE|DICT|INTERRES
   115   59   60 1    
   116   59  125 1    
   117   60   61 1    
   118   60   62 1    
   119   60  126 1    
   120   61  127 1    
   121   61  128 1    
   122   61  129 1    
   123   62   63 2    
   124   62   64 am   BACKBONE|DICT|INTERRES
   125   64   65 1    
   126   64  130 1    
   127   65   66 1    
   128   65   69 1    
   129   65  131 1    
   130   66   67 am   BACKBONE|DICT|INTERRES
   131   66   68 2    
   132   67  132 1    
   133   67  133 1    
   134   69   70 1    
   135   69  134 1    
   136   69  135 1    
   137   70   71 1    
   138   71  136 1    
   139   71  137 1    
@<TRIPOS>SUBSTRUCTURE
     1 UNK         1 GROUP             0       ****    0 ROOT    
