@<TRIPOS>MOLECULE
3R136
137   139    1
SMALL
USER_CHARGES


@<TRIPOS>ATOM
      1 CA         28.3311   23.0852    4.8968 C.3       0 UNK        -0.1979 
      2 C          28.1346   22.6865    3.4416 C.2       0 UNK         0.4864 
      3 O          27.9366   23.5560    2.5929 O.2       0 UNK        -0.5359 
      4 N          28.1775   21.3767    3.1565 N.am      1 UNK        -0.4318 
      5 CA         27.9805   20.7668    1.8340 C.3       1 UNK         0.0824 
      6 C6         29.1544   21.0428    0.8494 C.3       12 UNK        -0.0944 
      7 S7         30.7163   20.3276    1.4612 S.3       12 UNK        -0.2672 
      8 C8         31.9603   21.4016    0.6674 C.3       12 UNK         0.0333 
      9 C9         32.0031   22.8272    1.2141 C.ar      12 UNK        -0.0807 
     10 C10        31.9040   23.0830    2.5878 C.ar      12 UNK        -0.0894 
     11 C11        31.9735   24.3910    3.0772 C.ar      12 UNK        -0.0804 
     12 C12        32.1469   25.4486    2.1816 C.ar      12 UNK        -0.0824 
     13 C13        32.2968   25.2063    0.8150 C.ar      12 UNK        -0.0762 
     14 C14        32.2081   23.8964    0.3346 C.ar      12 UNK        -0.0782 
     15 C15        32.6096   26.3570   -0.1275 C.3       12 UNK         0.0230 
     16 S16        31.0990   27.0377   -0.8725 S.3       12 UNK        -0.2608 
     17 C17        31.3307   28.8387   -0.6530 C.3       12 UNK        -0.0989 
     18 CA         30.2788   29.4811    0.2826 C.3       5 UNK         0.0716 
     19 N          28.9111   29.2136   -0.1815 N.am      5 UNK        -0.4135 
     20 C          27.7788   29.7170    0.3285 C.2       4 UNK         0.5031 
     21 O          27.7488   30.4931    1.2834 O.2       4 UNK        -0.5229 
     22 CA         26.4524   29.2736   -0.3107 C.3       4 UNK         0.0329 
     23 CB         25.9063   30.3877   -1.2177 C.3       4 UNK        -0.2001 
     24 N          26.5340   28.0223   -1.0738 N.am      4 UNK        -0.4303 
     25 C          26.7480   26.8107   -0.5424 C.2       3 UNK         0.5044 
     26 O          26.9659   26.6116    0.6547 O.2       3 UNK        -0.5152 
     27 CA         26.7398   25.6353   -1.5258 C.3       3 UNK         0.0319 
     28 CB         28.1318   25.4102   -2.1395 C.3       3 UNK        -0.2001 
     29 N          26.3114   24.4189   -0.8396 N.am      3 UNK        -0.4354 
     30 C          25.5982   23.4375   -1.4065 C.2       2 UNK         0.4964 
     31 O          25.2315   23.4543   -2.5832 O.2       2 UNK        -0.5047 
     32 CA         25.2789   22.2224   -0.5234 C.3       2 UNK         0.0288 
     33 CB         24.5983   21.0688   -1.2908 C.3       2 UNK        -0.2113 
     34 N          26.5099   21.7512    0.1069 N.am      2 UNK        -0.4145 
     35 C          26.5785   21.1183    1.2837 C.2       1 UNK         0.5006 
     36 O          25.5853   20.8093    1.9476 O.2       1 UNK        -0.5103 
     37 C          30.5275   29.1308    1.7674 C.2       5 UNK         0.5055 
     38 O          31.4028   29.7357    2.3901 O.2       5 UNK        -0.5220 
     39 N          29.7218   28.2206    2.3324 N.am      6 UNK        -0.4450 
     40 CA         29.6823   27.9147    3.7637 C.3       6 UNK         0.0367 
     41 CB         28.7232   26.7391    3.9941 C.3       6 UNK        -0.1929 
     42 C          29.2856   29.1146    4.6441 C.2       6 UNK         0.5070 
     43 O          29.7041   29.1695    5.7998 O.2       6 UNK        -0.5237 
     44 N          28.5144   30.0549    4.0830 N.am      7 UNK        -0.4739 
     45 CA         28.1595   31.3262    4.7078 C.3       7 UNK         0.0276 
     46 CB         26.6445   31.5570    4.5764 C.3       7 UNK        -0.1927 
     47 C          28.9460   32.4732    4.0604 C.2       7 UNK         0.5013 
     48 O          29.6052   33.2282    4.7737 O.2       7 UNK        -0.5193 
     49 N          28.8870   32.5728    2.7238 N.am      8 UNK        -0.4253 
     50 CA         29.4264   33.6832    1.9304 C.3       8 UNK         0.0242 
     51 CB         28.9578   33.5470    0.4724 C.3       8 UNK        -0.2000 
     52 C          30.9546   33.8409    1.9981 C.2       8 UNK         0.4948 
     53 O          31.4386   34.9716    1.9359 O.2       8 UNK        -0.5275 
     54 N          31.6791   32.7244    2.1446 N.am      9 UNK        -0.4246 
     55 CA         33.1259   32.6899    2.3758 C.3       9 UNK         0.0261 
     56 CB         33.7977   31.8833    1.2485 C.3       9 UNK        -0.1959 
     57 C          33.4526   32.1030    3.7613 C.2       9 UNK         0.5033 
     58 O          34.6162   31.7915    4.0196 O.2       9 UNK        -0.5390 
     59 N          32.4296   31.9309    4.6160 N.am      10 UNK        -0.4215 
     60 CA         32.4684   31.3676    5.9718 C.3       10 UNK         0.0240 
     61 CB         33.1077   32.3848    6.9405 C.3       10 UNK        -0.1982 
     62 C          33.1208   29.9705    6.0726 C.2       10 UNK         0.4970 
     63 O          33.6639   29.6383    7.1280 O.2       10 UNK        -0.4916 
     64 N          33.0830   29.1886    4.9815 N.am      11 UNK        -0.4279 
     65 CA         33.8068   27.9139    4.8309 C.3       11 UNK         0.1003 
     66 C          35.3639   28.0643    4.8005 C.2       11 UNK         0.5709 
     67 N          35.9129   29.2451    4.5360 N.am      11 UNK        -0.7358 
     68 O          36.0980   27.0980    4.9901 O.2       11 UNK        -0.4999 
     69 C69        33.2843   26.8259    5.8200 C.3       12 UNK        -0.0954 
     70 S70        33.5215   25.1047    5.2501 S.3       12 UNK        -0.2268 
     71 C71        31.8915   24.6584    4.5725 C.3       12 UNK         0.0203 
     72 H72        29.0979   23.8531    4.9761 H         1 UNK         0.0888 
     73 H73        27.4036   23.4896    5.3013 H         1 UNK         0.0888 
     74 H74        28.6341   22.2400    5.5146 H         1 UNK         0.0888 
     75 H75        28.3191   20.7178    3.9088 H         1 UNK         0.3017 
     76 H76        27.9495   19.6892    2.0038 H         1 UNK         0.0873 
     77 H77        28.9608   20.5948   -0.1269 H         1 UNK         0.0745 
     78 H78        29.2843   22.1147    0.6878 H         1 UNK         0.0745 
     79 H79        31.7752   21.4063   -0.4080 H         1 UNK         0.0705 
     80 H80        32.9440   20.9522    0.8084 H         1 UNK         0.0705 
     81 H81        31.7791   22.2607    3.2785 H         1 UNK         0.1334 
     82 H82        32.1976   26.4613    2.5494 H         1 UNK         0.1417 
     83 H83        32.3206   23.7104   -0.7251 H         1 UNK         0.1562 
     84 H84        33.2753   26.0202   -0.9236 H         1 UNK         0.0748 
     85 H85        33.1586   27.1274    0.4153 H         1 UNK         0.0748 
     86 H86        32.3421   29.0683   -0.3136 H         1 UNK         0.0940 
     87 H87        31.2574   29.2970   -1.6406 H         1 UNK         0.0940 
     88 H88        30.4149   30.5612    0.2141 H         1 UNK         0.0703 
     89 H89        28.8345   28.5644   -0.9505 H         1 UNK         0.3081 
     90 H90        25.7426   29.1203    0.5051 H         1 UNK         0.0719 
     91 H91        26.5626   30.5759   -2.0684 H         1 UNK         0.0809 
     92 H92        24.9177   30.1377   -1.6032 H         1 UNK         0.0809 
     93 H93        25.8085   31.3257   -0.6687 H         1 UNK         0.0809 
     94 H94        26.3736   28.0923   -2.0690 H         1 UNK         0.2990 
     95 H95        26.0325   25.8751   -2.3230 H         1 UNK         0.0690 
     96 H96        28.8587   25.1165   -1.3810 H         1 UNK         0.0788 
     97 H97        28.5049   26.3140   -2.6226 H         1 UNK         0.0788 
     98 H98        28.1078   24.6266   -2.8969 H         1 UNK         0.0788 
     99 H99        26.5480   24.3781    0.1459 H         1 UNK         0.2993 
    100 H100       24.5919   22.5756    0.2491 H         1 UNK         0.0949 
    101 H101       25.2429   20.6749   -2.0775 H         1 UNK         0.0767 
    102 H102       24.3407   20.2448   -0.6252 H         1 UNK         0.0767 
    103 H103       23.6722   21.4029   -1.7605 H         1 UNK         0.0767 
    104 H104       27.3679   22.0022   -0.3646 H         1 UNK         0.3013 
    105 H105       29.0350   27.7579    1.7509 H         1 UNK         0.3121 
    106 H106       30.6859   27.6141    4.0656 H         1 UNK         0.0774 
    107 H107       28.6948   26.4550    5.0468 H         1 UNK         0.0815 
    108 H108       27.7038   26.9830    3.6918 H         1 UNK         0.0815 
    109 H109       29.0357   25.8630    3.4262 H         1 UNK         0.0815 
    110 H110       28.2324   29.9392    3.1147 H         1 UNK         0.2987 
    111 H111       28.4062   31.3137    5.7720 H         1 UNK         0.0949 
    112 H112       26.3183   31.5609    3.5354 H         1 UNK         0.0806 
    113 H113       26.0830   30.7809    5.0967 H         1 UNK         0.0806 
    114 H114       26.3557   32.5136    5.0139 H         1 UNK         0.0806 
    115 H115       28.3539   31.8723    2.2094 H         1 UNK         0.3010 
    116 H116       28.9949   34.6013    2.3350 H         1 UNK         0.0829 
    117 H117       29.2997   34.3914   -0.1278 H         1 UNK         0.0813 
    118 H118       29.3396   32.6402    0.0045 H         1 UNK         0.0813 
    119 H119       27.8699   33.5233    0.4059 H         1 UNK         0.0813 
    120 H120       31.2112   31.8261    2.1858 H         1 UNK         0.3038 
    121 H121       33.5424   33.6989    2.3628 H         1 UNK         0.0769 
    122 H122       34.8841   31.9137    1.3406 H         1 UNK         0.0811 
    123 H123       33.5466   32.2876    0.2680 H         1 UNK         0.0811 
    124 H124       33.5019   30.8346    1.2654 H         1 UNK         0.0811 
    125 H125       31.5209   32.2716    4.3273 H         1 UNK         0.3204 
    126 H126       31.4287   31.2350    6.2733 H         1 UNK         0.0748 
    127 H127       33.0250   32.0513    7.9757 H         1 UNK         0.0771 
    128 H128       34.1672   32.5312    6.7272 H         1 UNK         0.0771 
    129 H129       32.6151   33.3552    6.8766 H         1 UNK         0.0771 
    130 H130       32.6190   29.5357    4.1497 H         1 UNK         0.2980 
    131 H131       33.5577   27.5893    3.8234 H         1 UNK         0.0545 
    132 H132       36.9168   29.3199    4.5118 H         1 UNK         0.3459 
    133 H133       35.3456   30.0737    4.3764 H         1 UNK         0.3459 
    134 H134       33.7766   26.9296    6.7882 H         1 UNK         0.0616 
    135 H135       32.2236   26.9784    6.0232 H         1 UNK         0.0616 
    136 H136       31.5381   23.7705    5.0984 H         1 UNK         0.0634 
    137 H137       31.1579   25.4371    4.7705 H         1 UNK         0.0634 
@<TRIPOS>BOND
     1    1    2 1    
     2    1   72 1    
     3    1   73 1    
     4    1   74 1    
     5    2    3 2    
     6    2    4 am   BACKBONE|DICT|INTERRES
     7    4    5 1    
     8    4   75 1    
     9    5    6 1    
    10    5   35 1    
    11    5   76 1    
    12    6    7 1    
    13    6   77 1    
    14    6   78 1    
    15    7    8 1    
    16    8    9 1    
    17    8   79 1    
    18    8   80 1    
    19    9   10 ar   
    20    9   14 ar   
    21   10   11 ar   
    22   10   81 1    
    23   11   12 ar   
    24   11   71 1    
    25   12   13 ar   
    26   12   82 1    
    27   13   14 ar   
    28   13   15 1    
    29   14   83 1    
    30   15   16 1    
    31   15   84 1    
    32   15   85 1    
    33   16   17 1    
    34   17   18 1    
    35   17   86 1    
    36   17   87 1    
    37   18   19 1    
    38   18   37 1    
    39   18   88 1    
    40   19   20 am   BACKBONE|DICT|INTERRES
    41   19   89 1    
    42   20   21 2    
    43   20   22 1    
    44   22   23 1    
    45   22   24 1    
    46   22   90 1    
    47   23   91 1    
    48   23   92 1    
    49   23   93 1    
    50   24   25 am   BACKBONE|DICT|INTERRES
    51   24   94 1    
    52   25   26 2    
    53   25   27 1    
    54   27   28 1    
    55   27   29 1    
    56   27   95 1    
    57   28   96 1    
    58   28   97 1    
    59   28   98 1    
    60   29   30 am   BACKBONE|DICT|INTERRES
    61   29   99 1    
    62   30   31 2    
    63   30   32 1    
    64   32   33 1    
    65   32   34 1    
    66   32  100 1    
    67   33  101 1    
    68   33  102 1    
    69   33  103 1    
    70   34   35 am   BACKBONE|DICT|INTERRES
    71   34  104 1    
    72   35   36 2    
    73   37   38 2    
    74   37   39 am   BACKBONE|DICT|INTERRES
    75   39   40 1    
    76   39  105 1    
    77   40   41 1    
    78   40   42 1    
    79   40  106 1    
    80   41  107 1    
    81   41  108 1    
    82   41  109 1    
    83   42   43 2    
    84   42   44 am   BACKBONE|DICT|INTERRES
    85   44   45 1    
    86   44  110 1    
    87   45   46 1    
    88   45   47 1    
    89   45  111 1    
    90   46  112 1    
    91   46  113 1    
    92   46  114 1    
    93   47   48 2    
    94   47   49 am   BACKBONE|DICT|INTERRES
    95   49   50 1    
    96   49  115 1    
    97   50   51 1    
    98   50   52 1    
    99   50  116 1    
   100   51  117 1    
   101   51  118 1    
   102   51  119 1    
   103   52   53 2    
   104   52   54 am   BACKBONE|DICT|INTERRES
   105   54   55 1    
   106   54  120 1    
   107   55   56 1    
   108   55   57 1    
   109   55  121 1    
   110   56  122 1    
   111   56  123 1    
   112   56  124 1    
   113   57   58 2    
   114   57   59 am   BACKBONE|DICT|INTERRES
   115   59   60 1    
   116   59  125 1    
   117   60   61 1    
   118   60   62 1    
   119   60  126 1    
   120   61  127 1    
   121   61  128 1    
   122   61  129 1    
   123   62   63 2    
   124   62   64 am   BACKBONE|DICT|INTERRES
   125   64   65 1    
   126   64  130 1    
   127   65   66 1    
   128   65   69 1    
   129   65  131 1    
   130   66   67 am   BACKBONE|DICT|INTERRES
   131   66   68 2    
   132   67  132 1    
   133   67  133 1    
   134   69   70 1    
   135   69  134 1    
   136   69  135 1    
   137   70   71 1    
   138   71  136 1    
   139   71  137 1    
@<TRIPOS>SUBSTRUCTURE
     1 UNK         1 GROUP             0       ****    0 ROOT    
