@<TRIPOS>MOLECULE
3R136
137   139    1
SMALL
USER_CHARGES


@<TRIPOS>ATOM
      1 CA         27.0008   22.1874    6.4780 C.3       0 UNK        -0.1979 
      2 C          27.0401   21.8207    5.0015 C.2       0 UNK         0.4864 
      3 O          26.5718   20.7445    4.6259 O.2       0 UNK        -0.5359 
      4 N          27.6015   22.7027    4.1645 N.am      1 UNK        -0.4318 
      5 CA         27.6617   22.5477    2.7083 C.3       1 UNK         0.0824 
      6 C6         28.7214   23.4938    2.0901 C.3       12 UNK        -0.0944 
      7 S7         29.3478   22.9044    0.4820 S.3       12 UNK        -0.2672 
      8 C8         31.1079   22.6125    0.8492 C.3       12 UNK         0.0333 
      9 C9         31.8866   23.9133    1.0042 C.ar      12 UNK        -0.0807 
     10 C10        32.2971   24.3505    2.2681 C.ar      12 UNK        -0.0894 
     11 C11        33.0361   25.5299    2.4058 C.ar      12 UNK        -0.0804 
     12 C12        33.3617   26.2749    1.2676 C.ar      12 UNK        -0.0824 
     13 C13        32.9768   25.8377   -0.0033 C.ar      12 UNK        -0.0762 
     14 C14        32.2320   24.6599   -0.1268 C.ar      12 UNK        -0.0782 
     15 C15        33.4099   26.6060   -1.2470 C.3       12 UNK         0.0230 
     16 S16        32.7150   28.2875   -1.3329 S.3       12 UNK        -0.2608 
     17 C17        30.9293   27.9390   -1.4596 C.3       12 UNK        -0.0989 
     18 CA         30.0421   28.9923   -0.7524 C.3       5 UNK         0.0716 
     19 N          28.6327   28.7684   -1.0792 N.am      5 UNK        -0.4135 
     20 C          27.5810   29.4561   -0.6142 C.2       4 UNK         0.5031 
     21 O          27.6836   30.4439    0.1127 O.2       4 UNK        -0.5229 
     22 CA         26.1776   28.9412   -0.9916 C.3       4 UNK         0.0329 
     23 CB         25.4832   29.9278   -1.9440 C.3       4 UNK        -0.2001 
     24 N          26.1680   27.6002   -1.5936 N.am      4 UNK        -0.4303 
     25 C          26.4998   26.4648   -0.9625 C.2       3 UNK         0.5044 
     26 O          26.8575   26.4113    0.2167 O.2       3 UNK        -0.5152 
     27 CA         26.5357   25.2015   -1.8345 C.3       3 UNK         0.0319 
     28 CB         27.9337   25.0286   -2.4530 C.3       3 UNK        -0.2001 
     29 N          26.2142   24.0095   -1.0535 N.am      3 UNK        -0.4354 
     30 C          24.9716   23.6059   -0.7526 C.2       2 UNK         0.4964 
     31 O          23.9534   24.1792   -1.1424 O.2       2 UNK        -0.5047 
     32 CA         24.8339   22.3395    0.1138 C.3       2 UNK         0.0288 
     33 CB         24.5925   21.1057   -0.7718 C.3       2 UNK        -0.2113 
     34 N          26.0087   22.1038    0.9564 N.am      2 UNK        -0.4145 
     35 C          26.2766   22.7902    2.0748 C.2       1 UNK         0.5006 
     36 O          25.5069   23.6165    2.5737 O.2       1 UNK        -0.5103 
     37 C          30.2942   29.0544    0.7716 C.2       5 UNK         0.5055 
     38 O          30.9600   29.9812    1.2303 O.2       5 UNK        -0.5220 
     39 N          29.6947   28.1273    1.5340 N.am      6 UNK        -0.4450 
     40 CA         29.7994   28.0887    2.9957 C.3       6 UNK         0.0367 
     41 CB         29.3453   26.7159    3.5075 C.3       6 UNK        -0.1929 
     42 C          29.0311   29.2140    3.7135 C.2       6 UNK         0.5070 
     43 O          29.3321   29.4873    4.8736 O.2       6 UNK        -0.5237 
     44 N          28.0628   29.8519    3.0410 N.am      7 UNK        -0.4739 
     45 CA         27.3939   31.0536    3.5461 C.3       7 UNK         0.0276 
     46 CB         25.9848   31.1697    2.9414 C.3       7 UNK        -0.1927 
     47 C          28.2297   32.3106    3.2543 C.2       7 UNK         0.5013 
     48 O          28.2674   33.2159    4.0882 O.2       7 UNK        -0.5193 
     49 N          28.8902   32.3383    2.0873 N.am      8 UNK        -0.4253 
     50 CA         29.7934   33.4080    1.6613 C.3       8 UNK         0.0242 
     51 CB         30.0770   33.2746    0.1558 C.3       8 UNK        -0.2000 
     52 C          31.1031   33.4408    2.4686 C.2       8 UNK         0.4948 
     53 O          31.5132   34.5189    2.9016 O.2       8 UNK        -0.5275 
     54 N          31.7313   32.2745    2.6614 N.am      9 UNK        -0.4246 
     55 CA         32.9764   32.1045    3.4040 C.3       9 UNK         0.0261 
     56 CB         34.1771   32.2667    2.4527 C.3       9 UNK        -0.1959 
     57 C          32.9540   30.7261    4.0716 C.2       9 UNK         0.5033 
     58 O          33.2553   29.7257    3.4202 O.2       9 UNK        -0.5390 
     59 N          32.6007   30.6896    5.3620 N.am      10 UNK        -0.4215 
     60 CA         32.3855   29.4822    6.1725 C.3       10 UNK         0.0240 
     61 CB         31.5637   29.8715    7.4172 C.3       10 UNK        -0.1982 
     62 C          33.6581   28.6865    6.5426 C.2       10 UNK         0.4970 
     63 O          33.7123   28.1144    7.6326 O.2       10 UNK        -0.4916 
     64 N          34.6475   28.6437    5.6405 N.am      11 UNK        -0.4279 
     65 CA         35.9011   27.8757    5.7505 C.3       11 UNK         0.1003 
     66 C          36.8185   28.2749    6.9504 C.2       11 UNK         0.5709 
     67 N          36.6766   29.4668    7.5186 N.am      11 UNK        -0.7358 
     68 O          37.7005   27.5180    7.3503 O.2       11 UNK        -0.4999 
     69 C69        35.6469   26.3415    5.6338 C.3       12 UNK        -0.0954 
     70 S70        35.3180   25.8263    3.9159 S.3       12 UNK        -0.2268 
     71 C71        33.5101   25.9906    3.7766 C.3       12 UNK         0.0203 
     72 H72        27.4607   23.1566    6.6703 H         1 UNK         0.0888 
     73 H73        25.9692   22.2267    6.8269 H         1 UNK         0.0888 
     74 H74        27.5314   21.4382    7.0651 H         1 UNK         0.0888 
     75 H75        27.9321   23.5850    4.5266 H         1 UNK         0.3017 
     76 H76        27.9579   21.5148    2.5097 H         1 UNK         0.0873 
     77 H77        29.5666   23.5910    2.7714 H         1 UNK         0.0745 
     78 H78        28.3268   24.5025    1.9561 H         1 UNK         0.0745 
     79 H79        31.1961   21.9940    1.7438 H         1 UNK         0.0705 
     80 H80        31.5423   22.0302    0.0354 H         1 UNK         0.0705 
     81 H81        32.0510   23.7669    3.1446 H         1 UNK         0.1334 
     82 H82        33.9383   27.1847    1.3710 H         1 UNK         0.1417 
     83 H83        31.9307   24.3108   -1.1053 H         1 UNK         0.1562 
     84 H84        33.1365   26.0655   -2.1546 H         1 UNK         0.0748 
     85 H85        34.4983   26.6782   -1.2534 H         1 UNK         0.0748 
     86 H86        30.7112   26.9432   -1.0710 H         1 UNK         0.0940 
     87 H87        30.6870   27.9025   -2.5231 H         1 UNK         0.0940 
     88 H88        30.2965   29.9739   -1.1577 H         1 UNK         0.0703 
     89 H89        28.4358   27.9841   -1.6806 H         1 UNK         0.3081 
     90 H90        25.5989   28.8950   -0.0665 H         1 UNK         0.0719 
     91 H91        24.4562   29.6256   -2.1501 H         1 UNK         0.0809 
     92 H92        25.4418   30.9276   -1.5088 H         1 UNK         0.0809 
     93 H93        26.0089   30.0092   -2.8962 H         1 UNK         0.0809 
     94 H94        25.9017   27.5505   -2.5673 H         1 UNK         0.2990 
     95 H95        25.8072   25.3022   -2.6423 H         1 UNK         0.0690 
     96 H96        28.7115   24.9737   -1.6899 H         1 UNK         0.0788 
     97 H97        28.1798   25.8633   -3.1105 H         1 UNK         0.0788 
     98 H98        27.9918   24.1205   -3.0536 H         1 UNK         0.0788 
     99 H99        26.9963   23.5156   -0.6482 H         1 UNK         0.2993 
    100 H100       23.9615   22.4747    0.7574 H         1 UNK         0.0949 
    101 H101       25.4338   20.9155   -1.4396 H         1 UNK         0.0767 
    102 H102       24.4312   20.2110   -0.1699 H         1 UNK         0.0767 
    103 H103       23.7063   21.2400   -1.3938 H         1 UNK         0.0767 
    104 H104       26.6925   21.4445    0.6116 H         1 UNK         0.3013 
    105 H105       29.1161   27.4238    1.0948 H         1 UNK         0.3121 
    106 H106       30.8538   28.2085    3.2551 H         1 UNK         0.0774 
    107 H107       28.3056   26.5135    3.2479 H         1 UNK         0.0815 
    108 H108       29.4308   26.6549    4.5933 H         1 UNK         0.0815 
    109 H109       29.9684   25.9257    3.0921 H         1 UNK         0.0815 
    110 H110       27.8891   29.6071    2.0745 H         1 UNK         0.2987 
    111 H111       27.2815   30.9735    4.6300 H         1 UNK         0.0949 
    112 H112       26.0088   31.3228    1.8628 H         1 UNK         0.0806 
    113 H113       25.3925   30.2766    3.1408 H         1 UNK         0.0806 
    114 H114       25.4494   32.0161    3.3735 H         1 UNK         0.0806 
    115 H115       28.7532   31.5679    1.4413 H         1 UNK         0.3010 
    116 H116       29.2815   34.3592    1.8230 H         1 UNK         0.0829 
    117 H117       29.1554   33.3092   -0.4257 H         1 UNK         0.0813 
    118 H118       30.7132   34.0887   -0.1939 H         1 UNK         0.0813 
    119 H119       30.5854   32.3396   -0.0809 H         1 UNK         0.0813 
    120 H120       31.3545   31.4241    2.2379 H         1 UNK         0.3038 
    121 H121       33.0505   32.8644    4.1851 H         1 UNK         0.0769 
    122 H122       34.1297   31.5612    1.6218 H         1 UNK         0.0811 
    123 H123       35.1175   32.0934    2.9772 H         1 UNK         0.0811 
    124 H124       34.2178   33.2724    2.0344 H         1 UNK         0.0811 
    125 H125       32.3924   31.5651    5.8204 H         1 UNK         0.3204 
    126 H126       31.7777   28.7968    5.5798 H         1 UNK         0.0748 
    127 H127       32.1279   30.5239    8.0848 H         1 UNK         0.0771 
    128 H128       30.6434   30.3868    7.1409 H         1 UNK         0.0771 
    129 H129       31.2708   28.9901    7.9893 H         1 UNK         0.0771 
    130 H130       34.4758   29.0953    4.7469 H         1 UNK         0.2980 
    131 H131       36.4919   28.1726    4.8834 H         1 UNK         0.0545 
    132 H132       37.2801   29.7240    8.2835 H         1 UNK         0.3459 
    133 H133       35.9655   30.1035    7.1977 H         1 UNK         0.3459 
    134 H134       36.5228   25.7712    5.9458 H         1 UNK         0.0616 
    135 H135       34.8358   26.0147    6.2859 H         1 UNK         0.0616 
    136 H136       33.0305   25.4152    4.5698 H         1 UNK         0.0634 
    137 H137       33.2189   27.0305    3.9213 H         1 UNK         0.0634 
@<TRIPOS>BOND
     1    1    2 1    
     2    1   72 1    
     3    1   73 1    
     4    1   74 1    
     5    2    3 2    
     6    2    4 am   BACKBONE|DICT|INTERRES
     7    4    5 1    
     8    4   75 1    
     9    5    6 1    
    10    5   35 1    
    11    5   76 1    
    12    6    7 1    
    13    6   77 1    
    14    6   78 1    
    15    7    8 1    
    16    8    9 1    
    17    8   79 1    
    18    8   80 1    
    19    9   10 ar   
    20    9   14 ar   
    21   10   11 ar   
    22   10   81 1    
    23   11   12 ar   
    24   11   71 1    
    25   12   13 ar   
    26   12   82 1    
    27   13   14 ar   
    28   13   15 1    
    29   14   83 1    
    30   15   16 1    
    31   15   84 1    
    32   15   85 1    
    33   16   17 1    
    34   17   18 1    
    35   17   86 1    
    36   17   87 1    
    37   18   19 1    
    38   18   37 1    
    39   18   88 1    
    40   19   20 am   BACKBONE|DICT|INTERRES
    41   19   89 1    
    42   20   21 2    
    43   20   22 1    
    44   22   23 1    
    45   22   24 1    
    46   22   90 1    
    47   23   91 1    
    48   23   92 1    
    49   23   93 1    
    50   24   25 am   BACKBONE|DICT|INTERRES
    51   24   94 1    
    52   25   26 2    
    53   25   27 1    
    54   27   28 1    
    55   27   29 1    
    56   27   95 1    
    57   28   96 1    
    58   28   97 1    
    59   28   98 1    
    60   29   30 am   BACKBONE|DICT|INTERRES
    61   29   99 1    
    62   30   31 2    
    63   30   32 1    
    64   32   33 1    
    65   32   34 1    
    66   32  100 1    
    67   33  101 1    
    68   33  102 1    
    69   33  103 1    
    70   34   35 am   BACKBONE|DICT|INTERRES
    71   34  104 1    
    72   35   36 2    
    73   37   38 2    
    74   37   39 am   BACKBONE|DICT|INTERRES
    75   39   40 1    
    76   39  105 1    
    77   40   41 1    
    78   40   42 1    
    79   40  106 1    
    80   41  107 1    
    81   41  108 1    
    82   41  109 1    
    83   42   43 2    
    84   42   44 am   BACKBONE|DICT|INTERRES
    85   44   45 1    
    86   44  110 1    
    87   45   46 1    
    88   45   47 1    
    89   45  111 1    
    90   46  112 1    
    91   46  113 1    
    92   46  114 1    
    93   47   48 2    
    94   47   49 am   BACKBONE|DICT|INTERRES
    95   49   50 1    
    96   49  115 1    
    97   50   51 1    
    98   50   52 1    
    99   50  116 1    
   100   51  117 1    
   101   51  118 1    
   102   51  119 1    
   103   52   53 2    
   104   52   54 am   BACKBONE|DICT|INTERRES
   105   54   55 1    
   106   54  120 1    
   107   55   56 1    
   108   55   57 1    
   109   55  121 1    
   110   56  122 1    
   111   56  123 1    
   112   56  124 1    
   113   57   58 2    
   114   57   59 am   BACKBONE|DICT|INTERRES
   115   59   60 1    
   116   59  125 1    
   117   60   61 1    
   118   60   62 1    
   119   60  126 1    
   120   61  127 1    
   121   61  128 1    
   122   61  129 1    
   123   62   63 2    
   124   62   64 am   BACKBONE|DICT|INTERRES
   125   64   65 1    
   126   64  130 1    
   127   65   66 1    
   128   65   69 1    
   129   65  131 1    
   130   66   67 am   BACKBONE|DICT|INTERRES
   131   66   68 2    
   132   67  132 1    
   133   67  133 1    
   134   69   70 1    
   135   69  134 1    
   136   69  135 1    
   137   70   71 1    
   138   71  136 1    
   139   71  137 1    
@<TRIPOS>SUBSTRUCTURE
     1 UNK         1 GROUP             0       ****    0 ROOT    
