@<TRIPOS>MOLECULE
3R136
137   139    1
SMALL
USER_CHARGES


@<TRIPOS>ATOM
      1 CA         32.5095   21.2054   -1.6646 C.3       0 UNK        -0.1979 
      2 C          31.9118   22.5672   -1.3430 C.2       0 UNK         0.4864 
      3 O          32.4770   23.5895   -1.7326 O.2       0 UNK        -0.5359 
      4 N          30.7720   22.5882   -0.6370 N.am      1 UNK        -0.4318 
      5 CA         30.0572   23.8085   -0.2376 C.3       1 UNK         0.0824 
      6 C6         29.0949   23.5293    0.9469 C.3       12 UNK        -0.0944 
      7 S7         28.8524   24.9844    2.0199 S.3       12 UNK        -0.2672 
      8 C8         29.8215   24.5311    3.4943 C.3       12 UNK         0.0333 
      9 C9         29.5852   25.5390    4.6074 C.ar      12 UNK        -0.0807 
     10 C10        30.5081   26.5605    4.8563 C.ar      12 UNK        -0.0894 
     11 C11        30.2447   27.5262    5.8334 C.ar      12 UNK        -0.0804 
     12 C12        29.0368   27.4856    6.5352 C.ar      12 UNK        -0.0824 
     13 C13        28.1071   26.4709    6.2933 C.ar      12 UNK        -0.0762 
     14 C14        28.4079   25.4749    5.3593 C.ar      12 UNK        -0.0782 
     15 C15        26.7647   26.4788    7.0147 C.3       12 UNK         0.0230 
     16 S16        25.3422   26.5174    5.8680 S.3       12 UNK        -0.2608 
     17 C17        25.7233   27.9385    4.7776 C.3       12 UNK        -0.0989 
     18 CA         26.3012   27.4874    3.4052 C.3       5 UNK         0.0716 
     19 N          25.4564   26.5193    2.6989 N.am      5 UNK        -0.4135 
     20 C          24.2508   26.7343    2.1573 C.2       4 UNK         0.5031 
     21 O          23.6545   27.8131    2.1808 O.2       4 UNK        -0.5229 
     22 CA         23.6209   25.5213    1.4444 C.3       4 UNK         0.0329 
     23 CB         22.1011   25.4592    1.6808 C.3       4 UNK        -0.2001 
     24 N          23.8798   25.4707   -0.0009 N.am      4 UNK        -0.4303 
     25 C          25.0691   25.5728   -0.6111 C.2       3 UNK         0.5044 
     26 O          26.1292   25.8241   -0.0334 O.2       3 UNK        -0.5152 
     27 CA         25.0808   25.3267   -2.1250 C.3       3 UNK         0.0319 
     28 CB         24.4904   26.5072   -2.9176 C.3       3 UNK        -0.2001 
     29 N          26.4592   25.0806   -2.5356 N.am      3 UNK        -0.4354 
     30 C          26.8587   24.3715   -3.5933 C.2       2 UNK         0.4964 
     31 O          26.0856   23.8944   -4.4250 O.2       2 UNK        -0.5047 
     32 CA         28.3697   24.1163   -3.7443 C.3       2 UNK         0.0288 
     33 CB         29.0687   25.2917   -4.4570 C.3       2 UNK        -0.2113 
     34 N          29.0525   23.7437   -2.4936 N.am      2 UNK        -0.4145 
     35 C          29.3337   24.5008   -1.4193 C.2       1 UNK         0.5006 
     36 O          29.0392   25.6932   -1.3329 O.2       1 UNK        -0.5103 
     37 C          26.7636   28.6534    2.5044 C.2       5 UNK         0.5055 
     38 O          26.9704   29.7641    2.9977 O.2       5 UNK        -0.5220 
     39 N          26.9309   28.3844    1.2001 N.am      6 UNK        -0.4450 
     40 CA         27.3897   29.3644    0.2148 C.3       6 UNK         0.0367 
     41 CB         26.9599   28.9209   -1.1897 C.3       6 UNK        -0.1929 
     42 C          28.9064   29.6004    0.2672 C.2       6 UNK         0.5070 
     43 O          29.3480   30.7221    0.0124 O.2       6 UNK        -0.5237 
     44 N          29.6855   28.5638    0.6065 N.am      7 UNK        -0.4739 
     45 CA         31.1495   28.6055    0.6880 C.3       7 UNK         0.0276 
     46 CB         31.7095   27.1819    0.5298 C.3       7 UNK        -0.1927 
     47 C          31.6553   29.2901    1.9714 C.2       7 UNK         0.5013 
     48 O          32.4304   28.6956    2.7217 O.2       7 UNK        -0.5193 
     49 N          31.2389   30.5453    2.1901 N.am      8 UNK        -0.4253 
     50 CA         31.5968   31.3859    3.3405 C.3       8 UNK         0.0242 
     51 CB         30.9179   32.7567    3.2014 C.3       8 UNK        -0.2000 
     52 C          33.1124   31.5530    3.5534 C.2       8 UNK         0.4948 
     53 O          33.5573   31.6485    4.6975 O.2       8 UNK        -0.5275 
     54 N          33.8818   31.5155    2.4562 N.am      9 UNK        -0.4246 
     55 CA         35.3464   31.5246    2.4372 C.3       9 UNK         0.0261 
     56 CB         35.8272   31.5997    0.9788 C.3       9 UNK        -0.1959 
     57 C          36.0047   30.3308    3.1581 C.2       9 UNK         0.5033 
     58 O          37.1619   30.4543    3.5617 O.2       9 UNK        -0.5390 
     59 N          35.2797   29.2125    3.3266 N.am      10 UNK        -0.4215 
     60 CA         35.7307   28.0640    4.1180 C.3       10 UNK         0.0240 
     61 CB         34.8933   26.8258    3.7578 C.3       10 UNK        -0.1982 
     62 C          35.6681   28.3296    5.6333 C.2       10 UNK         0.4970 
     63 O          36.4309   27.7117    6.3773 O.2       10 UNK        -0.4916 
     64 N          34.7719   29.2288    6.0588 N.am      11 UNK        -0.4279 
     65 CA         34.6084   29.6564    7.4538 C.3       11 UNK         0.1003 
     66 C          35.4192   30.9433    7.7540 C.2       11 UNK         0.5709 
     67 N          35.4404   31.9200    6.8546 N.am      11 UNK        -0.7358 
     68 O          36.0404   31.0530    8.8085 O.2       11 UNK        -0.4999 
     69 C69        33.1163   29.8522    7.8225 C.3       12 UNK        -0.0954 
     70 S70        32.1493   28.3139    7.6665 S.3       12 UNK        -0.2268 
     71 C71        31.2446   28.6334    6.1227 C.3       12 UNK         0.0203 
     72 H72        33.5156   21.1312   -1.2528 H         1 UNK         0.0888 
     73 H73        31.9145   20.3902   -1.2530 H         1 UNK         0.0888 
     74 H74        32.5720   21.0685   -2.7438 H         1 UNK         0.0888 
     75 H75        30.3599   21.7154   -0.3373 H         1 UNK         0.3017 
     76 H76        30.8218   24.5037    0.1107 H         1 UNK         0.0873 
     77 H77        28.1196   23.1862    0.5955 H         1 UNK         0.0745 
     78 H78        29.4811   22.7182    1.5662 H         1 UNK         0.0745 
     79 H79        29.5328   23.5359    3.8360 H         1 UNK         0.0705 
     80 H80        30.8797   24.4808    3.2329 H         1 UNK         0.0705 
     81 H81        31.4219   26.6140    4.2800 H         1 UNK         0.1334 
     82 H82        28.8219   28.2519    7.2677 H         1 UNK         0.1417 
     83 H83        27.6869   24.6932    5.1609 H         1 UNK         0.1562 
     84 H84        26.6906   27.3341    7.6882 H         1 UNK         0.0748 
     85 H85        26.6913   25.5882    7.6401 H         1 UNK         0.0748 
     86 H86        26.4195   28.6027    5.2929 H         1 UNK         0.0940 
     87 H87        24.8094   28.5165    4.6313 H         1 UNK         0.0940 
     88 H88        27.2265   26.9556    3.6034 H         1 UNK         0.0703 
     89 H89        25.8823   25.6153    2.5490 H         1 UNK         0.3081 
     90 H90        24.0539   24.6174    1.8781 H         1 UNK         0.0719 
     91 H91        21.8702   25.4990    2.7464 H         1 UNK         0.0809 
     92 H92        21.5836   26.2932    1.2048 H         1 UNK         0.0809 
     93 H93        21.6745   24.5337    1.2937 H         1 UNK         0.0809 
     94 H94        23.0727   25.2881   -0.5794 H         1 UNK         0.2990 
     95 H95        24.4877   24.4300   -2.3170 H         1 UNK         0.0690 
     96 H96        24.3852   26.2554   -3.9730 H         1 UNK         0.0788 
     97 H97        25.1206   27.3927   -2.8549 H         1 UNK         0.0788 
     98 H98        23.4995   26.7796   -2.5523 H         1 UNK         0.0788 
     99 H99        27.1624   25.4169   -1.8793 H         1 UNK         0.2993 
    100 H100       28.4676   23.2451   -4.3944 H         1 UNK         0.0949 
    101 H101       28.9770   26.2239   -3.8988 H         1 UNK         0.0767 
    102 H102       30.1301   25.0914   -4.6037 H         1 UNK         0.0767 
    103 H103       28.6308   25.4627   -5.4412 H         1 UNK         0.0767 
    104 H104       29.3239   22.7722   -2.4379 H         1 UNK         0.3013 
    105 H105       26.7342   27.4452    0.8593 H         1 UNK         0.3121 
    106 H106       26.9033   30.3197    0.4245 H         1 UNK         0.0774 
    107 H107       25.8744   28.8608   -1.2573 H         1 UNK         0.0815 
    108 H108       27.2934   29.6327   -1.9460 H         1 UNK         0.0815 
    109 H109       27.3738   27.9462   -1.4519 H         1 UNK         0.0815 
    110 H110       29.2453   27.6745    0.8017 H         1 UNK         0.2987 
    111 H111       31.5253   29.1953   -0.1509 H         1 UNK         0.0949 
    112 H112       31.3716   26.5270    1.3330 H         1 UNK         0.0806 
    113 H113       31.4088   26.7459   -0.4222 H         1 UNK         0.0806 
    114 H114       32.8002   27.1833    0.5491 H         1 UNK         0.0806 
    115 H115       30.5903   30.9363    1.5122 H         1 UNK         0.3010 
    116 H116       31.1975   30.8993    4.2308 H         1 UNK         0.0829 
    117 H117       31.2467   33.2815    2.3035 H         1 UNK         0.0813 
    118 H118       31.1474   33.3949    4.0560 H         1 UNK         0.0813 
    119 H119       29.8330   32.6584    3.1546 H         1 UNK         0.0813 
    120 H120       33.4197   31.4313    1.5626 H         1 UNK         0.3038 
    121 H121       35.6729   32.4298    2.9535 H         1 UNK         0.0769 
    122 H122       35.4489   32.4923    0.4801 H         1 UNK         0.0811 
    123 H123       35.5078   30.7300    0.4031 H         1 UNK         0.0811 
    124 H124       36.9163   31.6412    0.9283 H         1 UNK         0.0811 
    125 H125       34.3247   29.1726    2.9791 H         1 UNK         0.3204 
    126 H126       36.7709   27.8549    3.8589 H         1 UNK         0.0748 
    127 H127       33.8548   26.9359    4.0709 H         1 UNK         0.0771 
    128 H128       34.9021   26.6347    2.6846 H         1 UNK         0.0771 
    129 H129       35.2857   25.9353    4.2506 H         1 UNK         0.0771 
    130 H130       34.2316   29.7468    5.3786 H         1 UNK         0.2980 
    131 H131       34.9997   28.8786    8.1127 H         1 UNK         0.0545 
    132 H132       34.8653   31.8581    6.0187 H         1 UNK         0.3459 
    133 H133       35.9705   32.7554    7.0424 H         1 UNK         0.3459 
    134 H134       32.6656   30.6364    7.2113 H         1 UNK         0.0616 
    135 H135       33.0244   30.1861    8.8577 H         1 UNK         0.0616 
    136 H136       30.7178   29.5853    6.2005 H         1 UNK         0.0634 
    137 H137       31.9592   28.7329    5.3057 H         1 UNK         0.0634 
@<TRIPOS>BOND
     1    1    2 1    
     2    1   72 1    
     3    1   73 1    
     4    1   74 1    
     5    2    3 2    
     6    2    4 am   BACKBONE|DICT|INTERRES
     7    4    5 1    
     8    4   75 1    
     9    5    6 1    
    10    5   35 1    
    11    5   76 1    
    12    6    7 1    
    13    6   77 1    
    14    6   78 1    
    15    7    8 1    
    16    8    9 1    
    17    8   79 1    
    18    8   80 1    
    19    9   10 ar   
    20    9   14 ar   
    21   10   11 ar   
    22   10   81 1    
    23   11   12 ar   
    24   11   71 1    
    25   12   13 ar   
    26   12   82 1    
    27   13   14 ar   
    28   13   15 1    
    29   14   83 1    
    30   15   16 1    
    31   15   84 1    
    32   15   85 1    
    33   16   17 1    
    34   17   18 1    
    35   17   86 1    
    36   17   87 1    
    37   18   19 1    
    38   18   37 1    
    39   18   88 1    
    40   19   20 am   BACKBONE|DICT|INTERRES
    41   19   89 1    
    42   20   21 2    
    43   20   22 1    
    44   22   23 1    
    45   22   24 1    
    46   22   90 1    
    47   23   91 1    
    48   23   92 1    
    49   23   93 1    
    50   24   25 am   BACKBONE|DICT|INTERRES
    51   24   94 1    
    52   25   26 2    
    53   25   27 1    
    54   27   28 1    
    55   27   29 1    
    56   27   95 1    
    57   28   96 1    
    58   28   97 1    
    59   28   98 1    
    60   29   30 am   BACKBONE|DICT|INTERRES
    61   29   99 1    
    62   30   31 2    
    63   30   32 1    
    64   32   33 1    
    65   32   34 1    
    66   32  100 1    
    67   33  101 1    
    68   33  102 1    
    69   33  103 1    
    70   34   35 am   BACKBONE|DICT|INTERRES
    71   34  104 1    
    72   35   36 2    
    73   37   38 2    
    74   37   39 am   BACKBONE|DICT|INTERRES
    75   39   40 1    
    76   39  105 1    
    77   40   41 1    
    78   40   42 1    
    79   40  106 1    
    80   41  107 1    
    81   41  108 1    
    82   41  109 1    
    83   42   43 2    
    84   42   44 am   BACKBONE|DICT|INTERRES
    85   44   45 1    
    86   44  110 1    
    87   45   46 1    
    88   45   47 1    
    89   45  111 1    
    90   46  112 1    
    91   46  113 1    
    92   46  114 1    
    93   47   48 2    
    94   47   49 am   BACKBONE|DICT|INTERRES
    95   49   50 1    
    96   49  115 1    
    97   50   51 1    
    98   50   52 1    
    99   50  116 1    
   100   51  117 1    
   101   51  118 1    
   102   51  119 1    
   103   52   53 2    
   104   52   54 am   BACKBONE|DICT|INTERRES
   105   54   55 1    
   106   54  120 1    
   107   55   56 1    
   108   55   57 1    
   109   55  121 1    
   110   56  122 1    
   111   56  123 1    
   112   56  124 1    
   113   57   58 2    
   114   57   59 am   BACKBONE|DICT|INTERRES
   115   59   60 1    
   116   59  125 1    
   117   60   61 1    
   118   60   62 1    
   119   60  126 1    
   120   61  127 1    
   121   61  128 1    
   122   61  129 1    
   123   62   63 2    
   124   62   64 am   BACKBONE|DICT|INTERRES
   125   64   65 1    
   126   64  130 1    
   127   65   66 1    
   128   65   69 1    
   129   65  131 1    
   130   66   67 am   BACKBONE|DICT|INTERRES
   131   66   68 2    
   132   67  132 1    
   133   67  133 1    
   134   69   70 1    
   135   69  134 1    
   136   69  135 1    
   137   70   71 1    
   138   71  136 1    
   139   71  137 1    
@<TRIPOS>SUBSTRUCTURE
     1 UNK         1 GROUP             0       ****    0 ROOT    
