@<TRIPOS>MOLECULE
3R136
137   139    1
SMALL
USER_CHARGES


@<TRIPOS>ATOM
      1 CA         27.7784   24.6047    6.2555 C.3       0 UNK        -0.1979 
      2 C          27.4111   23.6705    5.1116 C.2       0 UNK         0.4864 
      3 O          26.2713   23.2090    5.0468 O.2       0 UNK        -0.5359 
      4 N          28.3717   23.3848    4.2202 N.am      1 UNK        -0.4318 
      5 CA         28.2347   22.4933    3.0610 C.3       1 UNK         0.0824 
      6 C6         29.5772   22.2948    2.3157 C.3       12 UNK        -0.0944 
      7 S7         30.8917   21.6264    3.3894 S.3       12 UNK        -0.2672 
      8 C8         32.1401   21.1309    2.1580 C.3       12 UNK         0.0333 
      9 C9         32.6918   22.3318    1.4034 C.ar      12 UNK        -0.0807 
     10 C10        33.6910   23.1246    1.9761 C.ar      12 UNK        -0.0894 
     11 C11        34.1726   24.2533    1.3056 C.ar      12 UNK        -0.0804 
     12 C12        33.6594   24.5753    0.0457 C.ar      12 UNK        -0.0824 
     13 C13        32.6541   23.7946   -0.5332 C.ar      12 UNK        -0.0762 
     14 C14        32.1858   22.6649    0.1432 C.ar      12 UNK        -0.0782 
     15 C15        32.0493   24.1916   -1.8737 C.3       12 UNK         0.0230 
     16 S16        30.3229   24.7572   -1.7043 S.3       12 UNK        -0.2608 
     17 C17        30.4998   26.2064   -0.6094 C.3       12 UNK        -0.0989 
     18 CA         30.2219   27.5472   -1.3317 C.3       5 UNK         0.0716 
     19 N          28.8324   27.6329   -1.7887 N.am      5 UNK        -0.4135 
     20 C          28.4017   28.3900   -2.8065 C.2       4 UNK         0.5031 
     21 O          29.1449   29.0453   -3.5373 O.2       4 UNK        -0.5229 
     22 CA         26.8782   28.4533   -3.0296 C.3       4 UNK         0.0329 
     23 CB         26.4478   27.4105   -4.0737 C.3       4 UNK        -0.2001 
     24 N          26.0941   28.2606   -1.8040 N.am      4 UNK        -0.4303 
     25 C          26.1162   29.0693   -0.7328 C.2       3 UNK         0.5044 
     26 O          26.7810   30.1020   -0.6697 O.2       3 UNK        -0.5152 
     27 CA         25.3227   28.6090    0.5029 C.3       3 UNK         0.0319 
     28 CB         23.8820   29.1404    0.4523 C.3       3 UNK        -0.2001 
     29 N          25.3069   27.1498    0.6477 N.am      3 UNK        -0.4354 
     30 C          26.3924   26.4077    0.9023 C.2       2 UNK         0.4964 
     31 O          27.5155   26.8773    1.1114 O.2       2 UNK        -0.5047 
     32 CA         26.2058   24.8912    0.8204 C.3       2 UNK         0.0288 
     33 CB         26.3949   24.4204   -0.6364 C.3       2 UNK        -0.2113 
     34 N          27.1716   24.2440    1.7030 N.am      2 UNK        -0.4145 
     35 C          27.1434   22.9567    2.0740 C.2       1 UNK         0.5006 
     36 O          26.2998   22.1471    1.6833 O.2       1 UNK        -0.5103 
     37 C          30.6045   28.7228   -0.4057 C.2       5 UNK         0.5055 
     38 O          31.7870   28.8540   -0.0866 O.2       5 UNK        -0.5220 
     39 N          29.6181   29.5219    0.0369 N.am      6 UNK        -0.4450 
     40 CA         29.7023   30.5522    1.0783 C.3       6 UNK         0.0367 
     41 CB         30.6709   31.6863    0.6789 C.3       6 UNK        -0.1929 
     42 C          30.0134   29.9559    2.4646 C.2       6 UNK         0.5070 
     43 O          30.6915   30.5928    3.2683 O.2       6 UNK        -0.5237 
     44 N          29.5110   28.7409    2.7351 N.am      7 UNK        -0.4739 
     45 CA         29.8168   27.9681    3.9450 C.3       7 UNK         0.0276 
     46 CB         29.5406   26.4830    3.6753 C.3       7 UNK        -0.1927 
     47 C          29.1177   28.4505    5.2292 C.2       7 UNK         0.5013 
     48 O          29.3415   27.8590    6.2855 O.2       7 UNK        -0.5193 
     49 N          28.3267   29.5231    5.1357 N.am      8 UNK        -0.4253 
     50 CA         27.7885   30.2844    6.2580 C.3       8 UNK         0.0242 
     51 CB         26.2522   30.1656    6.2489 C.3       8 UNK        -0.2000 
     52 C          28.2720   31.7364    6.0801 C.2       8 UNK         0.4948 
     53 O          27.5377   32.5383    5.5034 O.2       8 UNK        -0.5275 
     54 N          29.4963   32.0931    6.4922 N.am      9 UNK        -0.4246 
     55 CA         30.5335   31.2775    7.1262 C.3       9 UNK         0.0261 
     56 CB         30.5819   31.6051    8.6284 C.3       9 UNK        -0.1959 
     57 C          31.8814   31.5735    6.4529 C.2       9 UNK         0.5033 
     58 O          32.0386   32.6490    5.8688 O.2       9 UNK        -0.5390 
     59 N          32.8210   30.6238    6.5878 N.am      10 UNK        -0.4215 
     60 CA         34.1587   30.5787    5.9798 C.3       10 UNK         0.0240 
     61 CB         35.0250   31.7867    6.3999 C.3       10 UNK        -0.1982 
     62 C          34.0699   30.4013    4.4528 C.2       10 UNK         0.4970 
     63 O          34.1560   31.3798    3.7083 O.2       10 UNK        -0.4916 
     64 N          33.8742   29.1436    4.0337 N.am      11 UNK        -0.4279 
     65 CA         33.7250   28.7163    2.6343 C.3       11 UNK         0.1003 
     66 C          34.9003   29.0985    1.6922 C.2       11 UNK         0.5709 
     67 N          34.6152   29.2600    0.4073 N.am      11 UNK        -0.7358 
     68 O          36.0558   29.2064    2.1001 O.2       11 UNK        -0.4999 
     69 C69        33.3775   27.2065    2.5259 C.3       12 UNK        -0.0954 
     70 S70        34.5644   26.0891    3.3525 S.3       12 UNK        -0.2268 
     71 C71        35.2327   25.1361    1.9508 C.3       12 UNK         0.0203 
     72 H72        28.8569   24.7229    6.3569 H         1 UNK         0.0888 
     73 H73        27.3412   25.5897    6.0929 H         1 UNK         0.0888 
     74 H74        27.3965   24.2144    7.1985 H         1 UNK         0.0888 
     75 H75        29.3009   23.7529    4.3621 H         1 UNK         0.3017 
     76 H76        27.9195   21.5216    3.4476 H         1 UNK         0.0873 
     77 H77        29.4444   21.6108    1.4748 H         1 UNK         0.0745 
     78 H78        29.9265   23.2397    1.8939 H         1 UNK         0.0745 
     79 H79        32.9539   20.6136    2.6681 H         1 UNK         0.0705 
     80 H80        31.7042   20.4070    1.4676 H         1 UNK         0.0705 
     81 H81        34.0762   22.8789    2.9565 H         1 UNK         0.1334 
     82 H82        34.0221   25.4533   -0.4716 H         1 UNK         0.1417 
     83 H83        31.4021   22.0655   -0.3002 H         1 UNK         0.1562 
     84 H84        32.0773   23.3355   -2.5492 H         1 UNK         0.0748 
     85 H85        32.6365   24.9781   -2.3504 H         1 UNK         0.0748 
     86 H86        31.5006   26.2107   -0.1792 H         1 UNK         0.0940 
     87 H87        29.8247   26.0731    0.2363 H         1 UNK         0.0940 
     88 H88        30.8816   27.6065   -2.2001 H         1 UNK         0.0703 
     89 H89        28.1559   27.1265   -1.2362 H         1 UNK         0.3081 
     90 H90        26.6458   29.4468   -3.4189 H         1 UNK         0.0719 
     91 H91        26.6360   26.3921   -3.7306 H         1 UNK         0.0809 
     92 H92        25.3866   27.4967   -4.3082 H         1 UNK         0.0809 
     93 H93        26.9952   27.5453   -5.0078 H         1 UNK         0.0809 
     94 H94        25.5073   27.4403   -1.7667 H         1 UNK         0.2990 
     95 H95        25.8115   29.0297    1.3846 H         1 UNK         0.0690 
     96 H96        23.3329   28.8840    1.3586 H         1 UNK         0.0788 
     97 H97        23.3307   28.7405   -0.3998 H         1 UNK         0.0788 
     98 H98        23.8710   30.2280    0.3663 H         1 UNK         0.0788 
     99 H99        24.4228   26.6878    0.4868 H         1 UNK         0.2993 
    100 H100       25.1995   24.6402    1.1629 H         1 UNK         0.0949 
    101 H101       26.2214   23.3494   -0.7400 H         1 UNK         0.0767 
    102 H102       25.6960   24.9196   -1.3085 H         1 UNK         0.0767 
    103 H103       27.4022   24.6283   -0.9977 H         1 UNK         0.0767 
    104 H104       27.8828   24.8617    2.0700 H         1 UNK         0.3013 
    105 H105       28.6830   29.3743   -0.3254 H         1 UNK         0.3121 
    106 H106       28.7048   30.9872    1.1549 H         1 UNK         0.0774 
    107 H107       30.5971   32.5223    1.3754 H         1 UNK         0.0815 
    108 H108       31.7103   31.3565    0.6852 H         1 UNK         0.0815 
    109 H109       30.4444   32.0713   -0.3151 H         1 UNK         0.0815 
    110 H110       28.9257   28.2826    2.0453 H         1 UNK         0.2987 
    111 H111       30.8823   28.0824    4.1470 H         1 UNK         0.0949 
    112 H112       28.4711   26.2898    3.5940 H         1 UNK         0.0806 
    113 H113       30.0217   26.1437    2.7578 H         1 UNK         0.0806 
    114 H114       29.9320   25.8704    4.4871 H         1 UNK         0.0806 
    115 H115       28.2436   29.9614    4.2294 H         1 UNK         0.3010 
    116 H116       28.1423   29.9043    7.2180 H         1 UNK         0.0829 
    117 H117       25.9376   29.1342    6.4094 H         1 UNK         0.0813 
    118 H118       25.8107   30.7675    7.0442 H         1 UNK         0.0813 
    119 H119       25.8205   30.5010    5.3050 H         1 UNK         0.0813 
    120 H120       29.8264   33.0167    6.2441 H         1 UNK         0.3038 
    121 H121       30.3392   30.2151    7.0055 H         1 UNK         0.0769 
    122 H122       30.8100   32.6574    8.8034 H         1 UNK         0.0811 
    123 H123       31.3469   31.0168    9.1367 H         1 UNK         0.0811 
    124 H124       29.6307   31.3848    9.1132 H         1 UNK         0.0811 
    125 H125       32.5677   29.7951    7.1085 H         1 UNK         0.3204 
    126 H126       34.6475   29.6890    6.3808 H         1 UNK         0.0748 
    127 H127       36.0417   31.6814    6.0198 H         1 UNK         0.0771 
    128 H128       34.6367   32.7301    6.0156 H         1 UNK         0.0771 
    129 H129       35.0903   31.8691    7.4848 H         1 UNK         0.0771 
    130 H130       33.8591   28.3980    4.7127 H         1 UNK         0.2980 
    131 H131       32.8604   29.2691    2.2676 H         1 UNK         0.0545 
    132 H132       35.3469   29.4952   -0.2435 H         1 UNK         0.3459 
    133 H133       33.6548   29.1554    0.0878 H         1 UNK         0.3459 
    134 H134       32.4043   27.0155    2.9706 H         1 UNK         0.0616 
    135 H135       33.2606   26.9256    1.4795 H         1 UNK         0.0616 
    136 H136       36.0519   24.5110    2.3086 H         1 UNK         0.0634 
    137 H137       35.6660   25.8250    1.2239 H         1 UNK         0.0634 
@<TRIPOS>BOND
     1    1    2 1    
     2    1   72 1    
     3    1   73 1    
     4    1   74 1    
     5    2    3 2    
     6    2    4 am   BACKBONE|DICT|INTERRES
     7    4    5 1    
     8    4   75 1    
     9    5    6 1    
    10    5   35 1    
    11    5   76 1    
    12    6    7 1    
    13    6   77 1    
    14    6   78 1    
    15    7    8 1    
    16    8    9 1    
    17    8   79 1    
    18    8   80 1    
    19    9   10 ar   
    20    9   14 ar   
    21   10   11 ar   
    22   10   81 1    
    23   11   12 ar   
    24   11   71 1    
    25   12   13 ar   
    26   12   82 1    
    27   13   14 ar   
    28   13   15 1    
    29   14   83 1    
    30   15   16 1    
    31   15   84 1    
    32   15   85 1    
    33   16   17 1    
    34   17   18 1    
    35   17   86 1    
    36   17   87 1    
    37   18   19 1    
    38   18   37 1    
    39   18   88 1    
    40   19   20 am   BACKBONE|DICT|INTERRES
    41   19   89 1    
    42   20   21 2    
    43   20   22 1    
    44   22   23 1    
    45   22   24 1    
    46   22   90 1    
    47   23   91 1    
    48   23   92 1    
    49   23   93 1    
    50   24   25 am   BACKBONE|DICT|INTERRES
    51   24   94 1    
    52   25   26 2    
    53   25   27 1    
    54   27   28 1    
    55   27   29 1    
    56   27   95 1    
    57   28   96 1    
    58   28   97 1    
    59   28   98 1    
    60   29   30 am   BACKBONE|DICT|INTERRES
    61   29   99 1    
    62   30   31 2    
    63   30   32 1    
    64   32   33 1    
    65   32   34 1    
    66   32  100 1    
    67   33  101 1    
    68   33  102 1    
    69   33  103 1    
    70   34   35 am   BACKBONE|DICT|INTERRES
    71   34  104 1    
    72   35   36 2    
    73   37   38 2    
    74   37   39 am   BACKBONE|DICT|INTERRES
    75   39   40 1    
    76   39  105 1    
    77   40   41 1    
    78   40   42 1    
    79   40  106 1    
    80   41  107 1    
    81   41  108 1    
    82   41  109 1    
    83   42   43 2    
    84   42   44 am   BACKBONE|DICT|INTERRES
    85   44   45 1    
    86   44  110 1    
    87   45   46 1    
    88   45   47 1    
    89   45  111 1    
    90   46  112 1    
    91   46  113 1    
    92   46  114 1    
    93   47   48 2    
    94   47   49 am   BACKBONE|DICT|INTERRES
    95   49   50 1    
    96   49  115 1    
    97   50   51 1    
    98   50   52 1    
    99   50  116 1    
   100   51  117 1    
   101   51  118 1    
   102   51  119 1    
   103   52   53 2    
   104   52   54 am   BACKBONE|DICT|INTERRES
   105   54   55 1    
   106   54  120 1    
   107   55   56 1    
   108   55   57 1    
   109   55  121 1    
   110   56  122 1    
   111   56  123 1    
   112   56  124 1    
   113   57   58 2    
   114   57   59 am   BACKBONE|DICT|INTERRES
   115   59   60 1    
   116   59  125 1    
   117   60   61 1    
   118   60   62 1    
   119   60  126 1    
   120   61  127 1    
   121   61  128 1    
   122   61  129 1    
   123   62   63 2    
   124   62   64 am   BACKBONE|DICT|INTERRES
   125   64   65 1    
   126   64  130 1    
   127   65   66 1    
   128   65   69 1    
   129   65  131 1    
   130   66   67 am   BACKBONE|DICT|INTERRES
   131   66   68 2    
   132   67  132 1    
   133   67  133 1    
   134   69   70 1    
   135   69  134 1    
   136   69  135 1    
   137   70   71 1    
   138   71  136 1    
   139   71  137 1    
@<TRIPOS>SUBSTRUCTURE
     1 UNK         1 GROUP             0       ****    0 ROOT    
