@<TRIPOS>MOLECULE
3R136
137   139    1
SMALL
USER_CHARGES


@<TRIPOS>ATOM
      1 CA         29.2607   20.0910    0.2687 C.3       0 UNK        -0.1979 
      2 C          29.5763   21.4574   -0.3204 C.2       0 UNK         0.4864 
      3 O          30.0348   21.5444   -1.4611 O.2       0 UNK        -0.5359 
      4 N          29.3202   22.5316    0.4382 N.am      1 UNK        -0.4318 
      5 CA         29.5863   23.9286    0.0669 C.3       1 UNK         0.0824 
      6 C6         29.7578   24.8254    1.3175 C.3       12 UNK        -0.0944 
      7 S7         31.1660   24.2927    2.3463 S.3       12 UNK        -0.2672 
      8 C8         30.3368   23.7659    3.8828 C.3       12 UNK         0.0333 
      9 C9         29.7981   24.9482    4.6775 C.ar      12 UNK        -0.0807 
     10 C10        30.6733   25.9434    5.1201 C.ar      12 UNK        -0.0894 
     11 C11        30.1988   27.0413    5.8403 C.ar      12 UNK        -0.0804 
     12 C12        28.8372   27.1332    6.1368 C.ar      12 UNK        -0.0824 
     13 C13        27.9503   26.1379    5.7125 C.ar      12 UNK        -0.0762 
     14 C14        28.4364   25.0454    4.9849 C.ar      12 UNK        -0.0782 
     15 C15        26.4686   26.2482    6.0522 C.3       12 UNK         0.0230 
     16 S16        25.4077   26.4205    4.5792 S.3       12 UNK        -0.2608 
     17 C17        26.1651   27.8338    3.7033 C.3       12 UNK        -0.0989 
     18 CA         26.8260   27.3714    2.3754 C.3       5 UNK         0.0716 
     19 N          25.8749   26.7838    1.4198 N.am      5 UNK        -0.4135 
     20 C          24.8662   27.4240    0.8068 C.2       4 UNK         0.5031 
     21 O          24.5605   28.5958    1.0330 O.2       4 UNK        -0.5229 
     22 CA         24.0660   26.6518   -0.2549 C.3       4 UNK         0.0329 
     23 CB         24.0859   27.3950   -1.6039 C.3       4 UNK        -0.2001 
     24 N          24.5657   25.2917   -0.4691 N.am      4 UNK        -0.4303 
     25 C          23.8019   24.1920   -0.5478 C.2       3 UNK         0.5044 
     26 O          22.5900   24.1861   -0.3246 O.2       3 UNK        -0.5152 
     27 CA         24.5064   22.8748   -0.9481 C.3       3 UNK         0.0319 
     28 CB         23.5881   21.9322   -1.7549 C.3       3 UNK        -0.2001 
     29 N          25.7852   23.0826   -1.6424 N.am      3 UNK        -0.4354 
     30 C          25.9967   23.7364   -2.7975 C.2       2 UNK         0.4964 
     31 O          25.0933   24.1330   -3.5343 O.2       2 UNK        -0.5047 
     32 CA         27.4628   24.0395   -3.1738 C.3       2 UNK         0.0288 
     33 CB         27.6140   25.4586   -3.7596 C.3       2 UNK        -0.2113 
     34 N          28.4248   23.8312   -2.0801 N.am      2 UNK        -0.4145 
     35 C          28.4975   24.4547   -0.8936 C.2       1 UNK         0.5006 
     36 O          27.7203   25.3453   -0.5304 O.2       1 UNK        -0.5103 
     37 C          27.6803   28.4607    1.6905 C.2       5 UNK         0.5055 
     38 O          27.8471   29.5577    2.2259 O.2       5 UNK        -0.5220 
     39 N          28.1836   28.1332    0.4900 N.am      6 UNK        -0.4450 
     40 CA         28.8965   29.0463   -0.4084 C.3       6 UNK         0.0367 
     41 CB         28.9829   28.4033   -1.8014 C.3       6 UNK        -0.1929 
     42 C          30.2919   29.4886    0.0699 C.2       6 UNK         0.5070 
     43 O          30.8290   30.4510   -0.4799 O.2       6 UNK        -0.5237 
     44 N          30.8632   28.8130    1.0763 N.am      7 UNK        -0.4739 
     45 CA         32.1807   29.0970    1.6606 C.3       7 UNK         0.0276 
     46 CB         32.6910   27.8285    2.3671 C.3       7 UNK        -0.1927 
     47 C          32.1860   30.3354    2.5854 C.2       7 UNK         0.5013 
     48 O          32.7092   30.2755    3.7012 O.2       7 UNK        -0.5193 
     49 N          31.6094   31.4450    2.1064 N.am      8 UNK        -0.4253 
     50 CA         31.5351   32.7377    2.7870 C.3       8 UNK         0.0242 
     51 CB         30.6980   33.7112    1.9408 C.3       8 UNK        -0.2000 
     52 C          32.9407   33.2975    3.0553 C.2       8 UNK         0.4948 
     53 O          33.6829   33.5509    2.1043 O.2       8 UNK        -0.5275 
     54 N          33.2832   33.4248    4.3454 N.am      9 UNK        -0.4246 
     55 CA         34.5997   33.7962    4.8835 C.3       9 UNK         0.0261 
     56 CB         34.9795   35.2384    4.4821 C.3       9 UNK        -0.1959 
     57 C          35.7206   32.7789    4.5703 C.2       9 UNK         0.5033 
     58 O          36.8972   33.1310    4.6738 O.2       9 UNK        -0.5390 
     59 N          35.3513   31.5372    4.2257 N.am      10 UNK        -0.4215 
     60 CA         36.2621   30.4279    3.9287 C.3       10 UNK         0.0240 
     61 CB         36.2766   30.1849    2.4072 C.3       10 UNK        -0.1982 
     62 C          35.8719   29.1643    4.7175 C.2       10 UNK         0.4970 
     63 O          36.2211   28.0574    4.3041 O.2       10 UNK        -0.4916 
     64 N          35.1380   29.3456    5.8231 N.am      11 UNK        -0.4279 
     65 CA         34.6417   28.2768    6.6970 C.3       11 UNK         0.1003 
     66 C          35.7633   27.5623    7.5023 C.2       11 UNK         0.5709 
     67 N          35.5145   26.3423    7.9576 N.am      11 UNK        -0.7358 
     68 O          36.8366   28.1114    7.7470 O.2       11 UNK        -0.4999 
     69 C69        33.4999   28.8040    7.6134 C.3       12 UNK        -0.0954 
     70 S70        32.1273   27.6145    7.7301 S.3       12 UNK        -0.2268 
     71 C71        31.1630   28.1298    6.2777 C.3       12 UNK         0.0203 
     72 H72        28.8609   20.1648    1.2799 H         1 UNK         0.0888 
     73 H73        28.5266   19.5758   -0.3502 H         1 UNK         0.0888 
     74 H74        30.1635   19.4820    0.3052 H         1 UNK         0.0888 
     75 H75        28.9337   22.3971    1.3609 H         1 UNK         0.3017 
     76 H76        30.5279   23.9639   -0.4864 H         1 UNK         0.0873 
     77 H77        28.8455   24.8289    1.9145 H         1 UNK         0.0745 
     78 H78        29.9439   25.8594    1.0244 H         1 UNK         0.0745 
     79 H79        29.5443   23.0555    3.6435 H         1 UNK         0.0705 
     80 H80        31.0559   23.2270    4.5011 H         1 UNK         0.0705 
     81 H81        31.7283   25.8663    4.8950 H         1 UNK         0.1334 
     82 H82        28.4689   27.9816    6.6975 H         1 UNK         0.1417 
     83 H83        27.7496   24.2773    4.6557 H         1 UNK         0.1562 
     84 H84        26.2843   27.0955    6.7146 H         1 UNK         0.0748 
     85 H85        26.1624   25.3588    6.6047 H         1 UNK         0.0748 
     86 H86        26.8960   28.3152    4.3544 H         1 UNK         0.0940 
     87 H87        25.3976   28.5866    3.5193 H         1 UNK         0.0940 
     88 H88        27.5306   26.5804    2.6298 H         1 UNK         0.0703 
     89 H89        26.0523   25.8237    1.1645 H         1 UNK         0.3081 
     90 H90        23.0363   26.6219    0.1071 H         1 UNK         0.0719 
     91 H91        23.6771   28.4017   -1.5078 H         1 UNK         0.0809 
     92 H92        25.0998   27.4884   -1.9954 H         1 UNK         0.0809 
     93 H93        23.4869   26.8740   -2.3513 H         1 UNK         0.0809 
     94 H94        25.5526   25.2058   -0.6837 H         1 UNK         0.2990 
     95 H95        24.7503   22.3721   -0.0111 H         1 UNK         0.0690 
     96 H96        24.1035   21.0101   -2.0235 H         1 UNK         0.0788 
     97 H97        23.2344   22.3994   -2.6744 H         1 UNK         0.0788 
     98 H98        22.7078   21.6516   -1.1753 H         1 UNK         0.0788 
     99 H99        26.6046   22.7904   -1.1301 H         1 UNK         0.2993 
    100 H100       27.7293   23.3245   -3.9537 H         1 UNK         0.0949 
    101 H101       27.2298   26.2146   -3.0756 H         1 UNK         0.0767 
    102 H102       28.6559   25.6948   -3.9759 H         1 UNK         0.0767 
    103 H103       27.0594   25.5580   -4.6934 H         1 UNK         0.0767 
    104 H104       29.0768   23.0609   -2.2149 H         1 UNK         0.3013 
    105 H105       27.9826   27.2079    0.1216 H         1 UNK         0.3121 
    106 H106       28.2969   29.9550   -0.4955 H         1 UNK         0.0774 
    107 H107       29.5021   27.4446   -1.7747 H         1 UNK         0.0815 
    108 H108       27.9892   28.2407   -2.2172 H         1 UNK         0.0815 
    109 H109       29.5192   29.0461   -2.5010 H         1 UNK         0.0815 
    110 H110       30.3329   28.0697    1.5047 H         1 UNK         0.2987 
    111 H111       32.8752   29.3193    0.8474 H         1 UNK         0.0949 
    112 H112       32.7640   26.9900    1.6744 H         1 UNK         0.0806 
    113 H113       33.6839   27.9803    2.7918 H         1 UNK         0.0806 
    114 H114       32.0290   27.5337    3.1795 H         1 UNK         0.0806 
    115 H115       31.2476   31.4002    1.1585 H         1 UNK         0.3010 
    116 H116       31.0201   32.5824    3.7374 H         1 UNK         0.0829 
    117 H117       31.1413   33.8756    0.9576 H         1 UNK         0.0813 
    118 H118       30.6176   34.6831    2.4295 H         1 UNK         0.0813 
    119 H119       29.6845   33.3374    1.7928 H         1 UNK         0.0813 
    120 H120       32.5941   33.1699    5.0405 H         1 UNK         0.3038 
    121 H121       34.4896   33.7823    5.9688 H         1 UNK         0.0769 
    122 H122       34.1808   35.9408    4.7201 H         1 UNK         0.0811 
    123 H123       35.1929   35.3205    3.4161 H         1 UNK         0.0811 
    124 H124       35.8703   35.5721    5.0157 H         1 UNK         0.0811 
    125 H125       34.3610   31.3156    4.1508 H         1 UNK         0.3204 
    126 H126       37.2769   30.6775    4.2448 H         1 UNK         0.0748 
    127 H127       35.2976   29.8759    2.0407 H         1 UNK         0.0771 
    128 H128       36.5657   31.0866    1.8668 H         1 UNK         0.0771 
    129 H129       36.9900   29.4052    2.1375 H         1 UNK         0.0771 
    130 H130       34.9366   30.2887    6.1156 H         1 UNK         0.2980 
    131 H131       34.2281   27.5280    6.0176 H         1 UNK         0.0545 
    132 H132       34.6235   25.9008    7.7907 H         1 UNK         0.3459 
    133 H133       36.2211   25.8634    8.4936 H         1 UNK         0.3459 
    134 H134       33.0893   29.7422    7.2353 H         1 UNK         0.0616 
    135 H135       33.8576   29.0329    8.6193 H         1 UNK         0.0616 
    136 H136       31.8391   28.3598    5.4534 H         1 UNK         0.0634 
    137 H137       30.6313   29.0549    6.5058 H         1 UNK         0.0634 
@<TRIPOS>BOND
     1    1    2 1    
     2    1   72 1    
     3    1   73 1    
     4    1   74 1    
     5    2    3 2    
     6    2    4 am   BACKBONE|DICT|INTERRES
     7    4    5 1    
     8    4   75 1    
     9    5    6 1    
    10    5   35 1    
    11    5   76 1    
    12    6    7 1    
    13    6   77 1    
    14    6   78 1    
    15    7    8 1    
    16    8    9 1    
    17    8   79 1    
    18    8   80 1    
    19    9   10 ar   
    20    9   14 ar   
    21   10   11 ar   
    22   10   81 1    
    23   11   12 ar   
    24   11   71 1    
    25   12   13 ar   
    26   12   82 1    
    27   13   14 ar   
    28   13   15 1    
    29   14   83 1    
    30   15   16 1    
    31   15   84 1    
    32   15   85 1    
    33   16   17 1    
    34   17   18 1    
    35   17   86 1    
    36   17   87 1    
    37   18   19 1    
    38   18   37 1    
    39   18   88 1    
    40   19   20 am   BACKBONE|DICT|INTERRES
    41   19   89 1    
    42   20   21 2    
    43   20   22 1    
    44   22   23 1    
    45   22   24 1    
    46   22   90 1    
    47   23   91 1    
    48   23   92 1    
    49   23   93 1    
    50   24   25 am   BACKBONE|DICT|INTERRES
    51   24   94 1    
    52   25   26 2    
    53   25   27 1    
    54   27   28 1    
    55   27   29 1    
    56   27   95 1    
    57   28   96 1    
    58   28   97 1    
    59   28   98 1    
    60   29   30 am   BACKBONE|DICT|INTERRES
    61   29   99 1    
    62   30   31 2    
    63   30   32 1    
    64   32   33 1    
    65   32   34 1    
    66   32  100 1    
    67   33  101 1    
    68   33  102 1    
    69   33  103 1    
    70   34   35 am   BACKBONE|DICT|INTERRES
    71   34  104 1    
    72   35   36 2    
    73   37   38 2    
    74   37   39 am   BACKBONE|DICT|INTERRES
    75   39   40 1    
    76   39  105 1    
    77   40   41 1    
    78   40   42 1    
    79   40  106 1    
    80   41  107 1    
    81   41  108 1    
    82   41  109 1    
    83   42   43 2    
    84   42   44 am   BACKBONE|DICT|INTERRES
    85   44   45 1    
    86   44  110 1    
    87   45   46 1    
    88   45   47 1    
    89   45  111 1    
    90   46  112 1    
    91   46  113 1    
    92   46  114 1    
    93   47   48 2    
    94   47   49 am   BACKBONE|DICT|INTERRES
    95   49   50 1    
    96   49  115 1    
    97   50   51 1    
    98   50   52 1    
    99   50  116 1    
   100   51  117 1    
   101   51  118 1    
   102   51  119 1    
   103   52   53 2    
   104   52   54 am   BACKBONE|DICT|INTERRES
   105   54   55 1    
   106   54  120 1    
   107   55   56 1    
   108   55   57 1    
   109   55  121 1    
   110   56  122 1    
   111   56  123 1    
   112   56  124 1    
   113   57   58 2    
   114   57   59 am   BACKBONE|DICT|INTERRES
   115   59   60 1    
   116   59  125 1    
   117   60   61 1    
   118   60   62 1    
   119   60  126 1    
   120   61  127 1    
   121   61  128 1    
   122   61  129 1    
   123   62   63 2    
   124   62   64 am   BACKBONE|DICT|INTERRES
   125   64   65 1    
   126   64  130 1    
   127   65   66 1    
   128   65   69 1    
   129   65  131 1    
   130   66   67 am   BACKBONE|DICT|INTERRES
   131   66   68 2    
   132   67  132 1    
   133   67  133 1    
   134   69   70 1    
   135   69  134 1    
   136   69  135 1    
   137   70   71 1    
   138   71  136 1    
   139   71  137 1    
@<TRIPOS>SUBSTRUCTURE
     1 UNK         1 GROUP             0       ****    0 ROOT    
