@<TRIPOS>MOLECULE
3R136
137   139    1
SMALL
USER_CHARGES


@<TRIPOS>ATOM
      1 CA         27.1621   26.2561    6.4350 C.3       0 UNK        -0.1979 
      2 C          27.3834   25.0490    5.5342 C.2       0 UNK         0.4864 
      3 O          26.5242   24.1687    5.4740 O.2       0 UNK        -0.5359 
      4 N          28.5351   24.9907    4.8539 N.am      1 UNK        -0.4318 
      5 CA         28.9277   23.8822    3.9825 C.3       1 UNK         0.0824 
      6 C6         30.4685   23.7191    3.9495 C.3       12 UNK        -0.0944 
      7 S7         30.9862   21.9734    3.8292 S.3       12 UNK        -0.2672 
      8 C8         31.2232   21.7404    2.0376 C.3       12 UNK         0.0333 
      9 C9         32.2100   22.7325    1.4388 C.ar      12 UNK        -0.0807 
     10 C10        33.5450   22.7393    1.8510 C.ar      12 UNK        -0.0894 
     11 C11        34.4494   23.6603    1.3150 C.ar      12 UNK        -0.0804 
     12 C12        34.0180   24.5535    0.3284 C.ar      12 UNK        -0.0824 
     13 C13        32.6776   24.5743   -0.0723 C.ar      12 UNK        -0.0762 
     14 C14        31.7816   23.6568    0.4825 C.ar      12 UNK        -0.0782 
     15 C15        32.1883   25.5914   -1.0956 C.3       12 UNK         0.0230 
     16 S16        32.2980   27.3048   -0.4834 S.3       12 UNK        -0.2608 
     17 C17        31.1846   27.3026    0.9638 C.3       12 UNK        -0.0989 
     18 CA         30.0367   28.3261    0.8145 C.3       5 UNK         0.0716 
     19 N          29.1271   27.9872   -0.2867 N.am      5 UNK        -0.4135 
     20 C          28.3414   28.8762   -0.9091 C.2       4 UNK         0.5031 
     21 O          28.2448   30.0577   -0.5751 O.2       4 UNK        -0.5229 
     22 CA         27.5197   28.3522   -2.0958 C.3       4 UNK         0.0329 
     23 CB         28.4282   28.0471   -3.2993 C.3       4 UNK        -0.2001 
     24 N          26.7219   27.1679   -1.7660 N.am      4 UNK        -0.4303 
     25 C          25.6378   27.1835   -0.9750 C.2       3 UNK         0.5044 
     26 O          25.2436   28.1821   -0.3741 O.2       3 UNK        -0.5152 
     27 CA         24.8539   25.8698   -0.8411 C.3       3 UNK         0.0319 
     28 CB         24.0496   25.5838   -2.1210 C.3       3 UNK        -0.2001 
     29 N          25.7474   24.7444   -0.5600 N.am      3 UNK        -0.4354 
     30 C          25.8889   24.1638    0.6384 C.2       2 UNK         0.4964 
     31 O          25.2096   24.4555    1.6241 O.2       2 UNK        -0.5047 
     32 CA         26.9472   23.0456    0.7588 C.3       2 UNK         0.0288 
     33 CB         27.9699   23.0227   -0.4023 C.3       2 UNK        -0.2113 
     34 N          27.6341   23.0708    2.0584 N.am      2 UNK        -0.4145 
     35 C          28.3441   24.0878    2.5709 C.2       1 UNK         0.5006 
     36 O          28.5683   25.1425    1.9719 O.2       1 UNK        -0.5103 
     37 C          29.3042   28.5626    2.1539 C.2       5 UNK         0.5055 
     38 O          29.8911   29.1437    3.0709 O.2       5 UNK        -0.5220 
     39 N          28.0298   28.1550    2.2373 N.am      6 UNK        -0.4450 
     40 CA         27.1396   28.3685    3.3775 C.3       6 UNK         0.0367 
     41 CB         25.8583   27.5450    3.1833 C.3       6 UNK        -0.1929 
     42 C          26.7989   29.8443    3.6425 C.2       6 UNK         0.5070 
     43 O          26.3908   30.1685    4.7581 O.2       6 UNK        -0.5237 
     44 N          27.0086   30.7261    2.6541 N.am      7 UNK        -0.4739 
     45 CA         26.8604   32.1824    2.7554 C.3       7 UNK         0.0276 
     46 CB         26.7173   32.7605    1.3352 C.3       7 UNK        -0.1927 
     47 C          28.0084   32.8432    3.5530 C.2       7 UNK         0.5013 
     48 O          28.6331   33.7877    3.0685 O.2       7 UNK        -0.5193 
     49 N          28.2747   32.3123    4.7555 N.am      8 UNK        -0.4253 
     50 CA         29.2832   32.7193    5.7438 C.3       8 UNK         0.0242 
     51 CB         28.9675   34.1297    6.2860 C.3       8 UNK        -0.2000 
     52 C          30.7518   32.5944    5.2828 C.2       8 UNK         0.4948 
     53 O          31.6354   33.1099    5.9701 O.2       8 UNK        -0.5275 
     54 N          31.0068   31.9166    4.1549 N.am      9 UNK        -0.4246 
     55 CA         32.3460   31.7522    3.5842 C.3       9 UNK         0.0261 
     56 CB         32.2380   31.6402    2.0561 C.3       9 UNK        -0.1959 
     57 C          33.0958   30.5414    4.1612 C.2       9 UNK         0.5033 
     58 O          34.3285   30.5454    4.1397 O.2       9 UNK        -0.5390 
     59 N          32.3587   29.5217    4.6288 N.am      10 UNK        -0.4215 
     60 CA         32.8154   28.2358    5.1793 C.3       10 UNK         0.0240 
     61 CB         33.7090   28.4151    6.4237 C.3       10 UNK        -0.1982 
     62 C          33.4669   27.3329    4.1183 C.2       10 UNK         0.4970 
     63 O          32.9214   26.2694    3.8296 O.2       10 UNK        -0.4916 
     64 N          34.5710   27.8046    3.5306 N.am      11 UNK        -0.4279 
     65 CA         35.1866   27.2864    2.3006 C.3       11 UNK         0.1003 
     66 C          35.5311   28.4098    1.2790 C.2       11 UNK         0.5709 
     67 N          35.3627   29.6915    1.5870 N.am      11 UNK        -0.7358 
     68 O          35.9557   28.1112    0.1654 O.2       11 UNK        -0.4999 
     69 C69        36.4230   26.3816    2.5673 C.3       12 UNK        -0.0954 
     70 S70        36.0282   24.7616    3.3049 S.3       12 UNK        -0.2268 
     71 C71        35.8807   23.6968    1.8293 C.3       12 UNK         0.0203 
     72 H72        26.2807   26.8113    6.1163 H         1 UNK         0.0888 
     73 H73        27.0013   25.9291    7.4619 H         1 UNK         0.0888 
     74 H74        28.0155   26.9337    6.4297 H         1 UNK         0.0888 
     75 H75        29.1874   25.7598    4.8993 H         1 UNK         0.3017 
     76 H76        28.4998   22.9698    4.4047 H         1 UNK         0.0873 
     77 H77        30.9351   24.3303    3.1748 H         1 UNK         0.0745 
     78 H78        30.9016   24.0829    4.8829 H         1 UNK         0.0745 
     79 H79        30.2543   21.8050    1.5426 H         1 UNK         0.0705 
     80 H80        31.5876   20.7276    1.8608 H         1 UNK         0.0705 
     81 H81        33.8725   22.0440    2.6120 H         1 UNK         0.1334 
     82 H82        34.7133   25.2653   -0.0958 H         1 UNK         0.1417 
     83 H83        30.7453   23.6705    0.1788 H         1 UNK         0.1562 
     84 H84        31.1589   25.3860   -1.3932 H         1 UNK         0.0748 
     85 H85        32.7913   25.5029   -2.0003 H         1 UNK         0.0748 
     86 H86        31.7991   27.5553    1.8265 H         1 UNK         0.0940 
     87 H87        30.7958   26.3018    1.1538 H         1 UNK         0.0940 
     88 H88        30.4937   29.2832    0.5593 H         1 UNK         0.0703 
     89 H89        29.1413   27.0308   -0.6066 H         1 UNK         0.3081 
     90 H90        26.8318   29.1473   -2.3925 H         1 UNK         0.0719 
     91 H91        29.0288   28.9186   -3.5643 H         1 UNK         0.0809 
     92 H92        29.1182   27.2270   -3.0967 H         1 UNK         0.0809 
     93 H93        27.8426   27.7821   -4.1798 H         1 UNK         0.0809 
     94 H94        26.9678   26.3129   -2.2404 H         1 UNK         0.2990 
     95 H95        24.1383   25.9986   -0.0259 H         1 UNK         0.0690 
     96 H96        23.3803   26.4133   -2.3543 H         1 UNK         0.0788 
     97 H97        23.4308   24.6937   -2.0053 H         1 UNK         0.0788 
     98 H98        24.6944   25.4311   -2.9871 H         1 UNK         0.0788 
     99 H99        26.3294   24.4144   -1.3155 H         1 UNK         0.2993 
    100 H100       26.3917   22.1070    0.7281 H         1 UNK         0.0949 
    101 H101       28.7110   22.2374   -0.2567 H         1 UNK         0.0767 
    102 H102       27.4853   22.8139   -1.3568 H         1 UNK         0.0767 
    103 H103       28.5006   23.9705   -0.4978 H         1 UNK         0.0767 
    104 H104       27.4748   22.2627    2.6438 H         1 UNK         0.3013 
    105 H105       27.6442   27.6508    1.4524 H         1 UNK         0.3121 
    106 H106       27.6581   28.0017    4.2632 H         1 UNK         0.0774 
    107 H107       25.3132   27.8485    2.2896 H         1 UNK         0.0815 
    108 H108       26.0831   26.4825    3.0957 H         1 UNK         0.0815 
    109 H109       25.1815   27.6629    4.0303 H         1 UNK         0.0815 
    110 H110       27.3606   30.3747    1.7729 H         1 UNK         0.2987 
    111 H111       25.9362   32.3980    3.2964 H         1 UNK         0.0949 
    112 H112       26.5455   33.8373    1.3641 H         1 UNK         0.0806 
    113 H113       27.6140   32.5873    0.7384 H         1 UNK         0.0806 
    114 H114       25.8743   32.3139    0.8077 H         1 UNK         0.0806 
    115 H115       27.6882   31.5263    5.0280 H         1 UNK         0.3010 
    116 H116       29.1787   32.0195    6.5743 H         1 UNK         0.0829 
    117 H117       29.1096   34.8966    5.5239 H         1 UNK         0.0813 
    118 H118       27.9398   34.1973    6.6429 H         1 UNK         0.0813 
    119 H119       29.6155   34.3839    7.1258 H         1 UNK         0.0813 
    120 H120       30.2371   31.4914    3.6558 H         1 UNK         0.3038 
    121 H121       32.9391   32.6419    3.8077 H         1 UNK         0.0769 
    122 H122       31.7417   30.7201    1.7555 H         1 UNK         0.0811 
    123 H123       33.2258   31.6412    1.5944 H         1 UNK         0.0811 
    124 H124       31.6831   32.4777    1.6327 H         1 UNK         0.0811 
    125 H125       31.3591   29.5763    4.4587 H         1 UNK         0.3204 
    126 H126       31.9091   27.7241    5.5079 H         1 UNK         0.0748 
    127 H127       33.9628   27.4478    6.8592 H         1 UNK         0.0771 
    128 H128       34.6472   28.9208    6.1949 H         1 UNK         0.0771 
    129 H129       33.1989   28.9935    7.1940 H         1 UNK         0.0771 
    130 H130       34.8916   28.7184    3.8328 H         1 UNK         0.2980 
    131 H131       34.4315   26.6945    1.7881 H         1 UNK         0.0545 
    132 H132       35.6001   30.3822    0.8934 H         1 UNK         0.3459 
    133 H133       35.0260   29.9931    2.4948 H         1 UNK         0.3459 
    134 H134       37.1178   26.8947    3.2341 H         1 UNK         0.0616 
    135 H135       36.9845   26.1977    1.6499 H         1 UNK         0.0616 
    136 H136       36.5650   24.0241    1.0456 H         1 UNK         0.0634 
    137 H137       36.1960   22.6878    2.0994 H         1 UNK         0.0634 
@<TRIPOS>BOND
     1    1    2 1    
     2    1   72 1    
     3    1   73 1    
     4    1   74 1    
     5    2    3 2    
     6    2    4 am   BACKBONE|DICT|INTERRES
     7    4    5 1    
     8    4   75 1    
     9    5    6 1    
    10    5   35 1    
    11    5   76 1    
    12    6    7 1    
    13    6   77 1    
    14    6   78 1    
    15    7    8 1    
    16    8    9 1    
    17    8   79 1    
    18    8   80 1    
    19    9   10 ar   
    20    9   14 ar   
    21   10   11 ar   
    22   10   81 1    
    23   11   12 ar   
    24   11   71 1    
    25   12   13 ar   
    26   12   82 1    
    27   13   14 ar   
    28   13   15 1    
    29   14   83 1    
    30   15   16 1    
    31   15   84 1    
    32   15   85 1    
    33   16   17 1    
    34   17   18 1    
    35   17   86 1    
    36   17   87 1    
    37   18   19 1    
    38   18   37 1    
    39   18   88 1    
    40   19   20 am   BACKBONE|DICT|INTERRES
    41   19   89 1    
    42   20   21 2    
    43   20   22 1    
    44   22   23 1    
    45   22   24 1    
    46   22   90 1    
    47   23   91 1    
    48   23   92 1    
    49   23   93 1    
    50   24   25 am   BACKBONE|DICT|INTERRES
    51   24   94 1    
    52   25   26 2    
    53   25   27 1    
    54   27   28 1    
    55   27   29 1    
    56   27   95 1    
    57   28   96 1    
    58   28   97 1    
    59   28   98 1    
    60   29   30 am   BACKBONE|DICT|INTERRES
    61   29   99 1    
    62   30   31 2    
    63   30   32 1    
    64   32   33 1    
    65   32   34 1    
    66   32  100 1    
    67   33  101 1    
    68   33  102 1    
    69   33  103 1    
    70   34   35 am   BACKBONE|DICT|INTERRES
    71   34  104 1    
    72   35   36 2    
    73   37   38 2    
    74   37   39 am   BACKBONE|DICT|INTERRES
    75   39   40 1    
    76   39  105 1    
    77   40   41 1    
    78   40   42 1    
    79   40  106 1    
    80   41  107 1    
    81   41  108 1    
    82   41  109 1    
    83   42   43 2    
    84   42   44 am   BACKBONE|DICT|INTERRES
    85   44   45 1    
    86   44  110 1    
    87   45   46 1    
    88   45   47 1    
    89   45  111 1    
    90   46  112 1    
    91   46  113 1    
    92   46  114 1    
    93   47   48 2    
    94   47   49 am   BACKBONE|DICT|INTERRES
    95   49   50 1    
    96   49  115 1    
    97   50   51 1    
    98   50   52 1    
    99   50  116 1    
   100   51  117 1    
   101   51  118 1    
   102   51  119 1    
   103   52   53 2    
   104   52   54 am   BACKBONE|DICT|INTERRES
   105   54   55 1    
   106   54  120 1    
   107   55   56 1    
   108   55   57 1    
   109   55  121 1    
   110   56  122 1    
   111   56  123 1    
   112   56  124 1    
   113   57   58 2    
   114   57   59 am   BACKBONE|DICT|INTERRES
   115   59   60 1    
   116   59  125 1    
   117   60   61 1    
   118   60   62 1    
   119   60  126 1    
   120   61  127 1    
   121   61  128 1    
   122   61  129 1    
   123   62   63 2    
   124   62   64 am   BACKBONE|DICT|INTERRES
   125   64   65 1    
   126   64  130 1    
   127   65   66 1    
   128   65   69 1    
   129   65  131 1    
   130   66   67 am   BACKBONE|DICT|INTERRES
   131   66   68 2    
   132   67  132 1    
   133   67  133 1    
   134   69   70 1    
   135   69  134 1    
   136   69  135 1    
   137   70   71 1    
   138   71  136 1    
   139   71  137 1    
@<TRIPOS>SUBSTRUCTURE
     1 UNK         1 GROUP             0       ****    0 ROOT    
