@<TRIPOS>MOLECULE
3R136
137   139    1
SMALL
USER_CHARGES


@<TRIPOS>ATOM
      1 CA         27.8907   22.6666   -2.4192 C.3       0 UNK        -0.1979 
      2 C          27.9815   23.3464   -1.0623 C.2       0 UNK         0.4864 
      3 O          27.6053   24.5132   -0.9441 O.2       0 UNK        -0.5359 
      4 N          28.4795   22.6303   -0.0455 N.am      1 UNK        -0.4318 
      5 CA         28.6051   23.0936    1.3397 C.3       1 UNK         0.0824 
      6 C6         29.4107   22.0787    2.1902 C.3       12 UNK        -0.0944 
      7 S7         30.1479   22.8273    3.6827 S.3       12 UNK        -0.2672 
      8 C8         31.9307   22.7701    3.3124 C.3       12 UNK         0.0333 
      9 C9         32.3834   23.9719    2.4955 C.ar      12 UNK        -0.0807 
     10 C10        32.9547   25.0772    3.1343 C.ar      12 UNK        -0.0894 
     11 C11        33.3946   26.1774    2.3922 C.ar      12 UNK        -0.0804 
     12 C12        33.2775   26.1585    1.0010 C.ar      12 UNK        -0.0824 
     13 C13        32.6518   25.0875    0.3561 C.ar      12 UNK        -0.0762 
     14 C14        32.2305   23.9848    1.1057 C.ar      12 UNK        -0.0782 
     15 C15        32.3568   25.1577   -1.1385 C.3       12 UNK         0.0230 
     16 S16        31.3947   26.6451   -1.6032 S.3       12 UNK        -0.2608 
     17 C17        30.2438   26.8148   -0.1965 C.3       12 UNK        -0.0989 
     18 CA         29.0751   27.7785   -0.4828 C.3       5 UNK         0.0716 
     19 N          28.1459   27.2085   -1.4496 N.am      5 UNK        -0.4135 
     20 C          27.4321   27.8995   -2.3436 C.2       4 UNK         0.5031 
     21 O          27.5753   29.1018   -2.5698 O.2       4 UNK        -0.5229 
     22 CA         26.3435   27.1084   -3.0831 C.3       4 UNK         0.0329 
     23 CB         26.9554   26.2407   -4.1953 C.3       4 UNK        -0.2001 
     24 N          25.6007   26.2593   -2.1501 N.am      4 UNK        -0.4303 
     25 C          24.6141   26.6897   -1.3537 C.2       3 UNK         0.5044 
     26 O          24.1553   27.8323   -1.3778 O.2       3 UNK        -0.5152 
     27 CA         24.0616   25.6784   -0.3454 C.3       3 UNK         0.0319 
     28 CB         23.8453   24.2754   -0.9521 C.3       3 UNK        -0.2001 
     29 N          24.9681   25.6124    0.7958 N.am      3 UNK        -0.4354 
     30 C          24.6421   25.1881    2.0219 C.2       2 UNK         0.4964 
     31 O          23.5065   24.8329    2.3452 O.2       2 UNK        -0.5047 
     32 CA         25.7923   25.1423    3.0479 C.3       2 UNK         0.0288 
     33 CB         25.4200   24.4042    4.3524 C.3       2 UNK        -0.2113 
     34 N          27.0290   24.6004    2.4692 N.am      2 UNK        -0.4145 
     35 C          27.2165   23.3761    1.9522 C.2       1 UNK         0.5006 
     36 O          26.3627   22.4853    1.9366 O.2       1 UNK        -0.5103 
     37 C          28.3030   28.0535    0.8181 C.2       5 UNK         0.5055 
     38 O          27.3959   27.2915    1.1625 O.2       5 UNK        -0.5220 
     39 N          28.7052   29.1085    1.5374 N.am      6 UNK        -0.4450 
     40 CA         28.0749   29.5552    2.7838 C.3       6 UNK         0.0367 
     41 CB         28.5783   30.9706    3.1152 C.3       6 UNK        -0.1929 
     42 C          28.3020   28.6261    3.9910 C.2       6 UNK         0.5070 
     43 O          27.5021   28.6679    4.9252 O.2       6 UNK        -0.5237 
     44 N          29.3951   27.8454    3.9698 N.am      7 UNK        -0.4739 
     45 CA         29.9072   27.0081    5.0693 C.3       7 UNK         0.0276 
     46 CB         28.9293   25.8637    5.4054 C.3       7 UNK        -0.1927 
     47 C          30.3110   27.8291    6.3145 C.2       7 UNK         0.5013 
     48 O          30.1760   27.3524    7.4424 O.2       7 UNK        -0.5193 
     49 N          30.8038   29.0522    6.0799 N.am      8 UNK        -0.4253 
     50 CA         31.1680   30.0451    7.0942 C.3       8 UNK         0.0242 
     51 CB         30.3953   31.3440    6.7940 C.3       8 UNK        -0.2000 
     52 C          32.6875   30.2922    7.1429 C.2       8 UNK         0.4948 
     53 O          33.1106   31.3630    7.5830 O.2       8 UNK        -0.5275 
     54 N          33.4845   29.3273    6.6574 N.am      9 UNK        -0.4246 
     55 CA         34.9452   29.3427    6.4722 C.3       9 UNK         0.0261 
     56 CB         35.6999   29.5414    7.8018 C.3       9 UNK        -0.1959 
     57 C          35.4090   30.3420    5.3974 C.2       9 UNK         0.5033 
     58 O          36.0474   29.9354    4.4258 O.2       9 UNK        -0.5390 
     59 N          35.0304   31.6162    5.5476 N.am      10 UNK        -0.4215 
     60 CA         35.1908   32.6801    4.5552 C.3       10 UNK         0.0240 
     61 CB         35.2553   34.0354    5.2839 C.3       10 UNK        -0.1982 
     62 C          34.0482   32.6101    3.5240 C.2       10 UNK         0.4970 
     63 O          33.2349   33.5310    3.4319 O.2       10 UNK        -0.4916 
     64 N          33.9816   31.4838    2.8062 N.am      11 UNK        -0.4279 
     65 CA         32.8926   31.1266    1.8836 C.3       11 UNK         0.1003 
     66 C          32.9059   31.8782    0.5218 C.2       11 UNK         0.5709 
     67 N          33.9526   32.6188    0.1778 N.am      11 UNK        -0.7358 
     68 O          31.9400   31.7915   -0.2324 O.2       11 UNK        -0.4999 
     69 C69        32.8068   29.5920    1.6745 C.3       12 UNK        -0.0954 
     70 S70        32.6585   28.6859    3.2525 S.3       12 UNK        -0.2268 
     71 C71        33.9461   27.4071    3.0950 C.3       12 UNK         0.0203 
     72 H72        26.8706   22.7198   -2.7982 H         1 UNK         0.0888 
     73 H73        28.5467   23.1661   -3.1314 H         1 UNK         0.0888 
     74 H74        28.1793   21.6169   -2.3696 H         1 UNK         0.0888 
     75 H75        28.7329   21.6662   -0.2059 H         1 UNK         0.3017 
     76 H76        29.1671   24.0279    1.3053 H         1 UNK         0.0873 
     77 H77        30.2106   21.6399    1.5932 H         1 UNK         0.0745 
     78 H78        28.7881   21.2345    2.4937 H         1 UNK         0.0745 
     79 H79        32.1842   21.8420    2.7982 H         1 UNK         0.0705 
     80 H80        32.4745   22.7415    4.2579 H         1 UNK         0.0705 
     81 H81        33.0472   25.0847    4.2118 H         1 UNK         0.1334 
     82 H82        33.5999   27.0122    0.4219 H         1 UNK         0.1417 
     83 H83        31.7607   23.1468    0.6103 H         1 UNK         0.1562 
     84 H84        31.7997   24.2768   -1.4615 H         1 UNK         0.0748 
     85 H85        33.2958   25.1508   -1.6934 H         1 UNK         0.0748 
     86 H86        30.8171   27.1692    0.6610 H         1 UNK         0.0940 
     87 H87        29.8695   25.8268    0.0723 H         1 UNK         0.0940 
     88 H88        29.4748   28.7217   -0.8621 H         1 UNK         0.0703 
     89 H89        27.9221   26.2253   -1.3021 H         1 UNK         0.3081 
     90 H90        25.6559   27.8207   -3.5446 H         1 UNK         0.0719 
     91 H91        27.4966   26.8567   -4.9147 H         1 UNK         0.0809 
     92 H92        27.6596   25.5082   -3.7993 H         1 UNK         0.0809 
     93 H93        26.1846   25.7012   -4.7458 H         1 UNK         0.0809 
     94 H94        25.9764   25.3334   -1.9832 H         1 UNK         0.2990 
     95 H95        23.0953   26.0592   -0.0077 H         1 UNK         0.0690 
     96 H96        23.2892   23.6347   -0.2676 H         1 UNK         0.0788 
     97 H97        24.7873   23.7734   -1.1743 H         1 UNK         0.0788 
     98 H98        23.2709   24.3312   -1.8778 H         1 UNK         0.0788 
     99 H99        25.9111   25.9619    0.6458 H         1 UNK         0.2993 
    100 H100       26.0062   26.1802    3.3091 H         1 UNK         0.0949 
    101 H101       24.5814   24.8928    4.8499 H         1 UNK         0.0767 
    102 H102       25.1286   23.3703    4.1654 H         1 UNK         0.0767 
    103 H103       26.2523   24.3953    5.0557 H         1 UNK         0.0767 
    104 H104       27.7680   25.2815    2.3584 H         1 UNK         0.3013 
    105 H105       29.4528   29.6854    1.1793 H         1 UNK         0.3121 
    106 H106       26.9969   29.6062    2.6145 H         1 UNK         0.0774 
    107 H107       28.1034   31.3519    4.0205 H         1 UNK         0.0815 
    108 H108       29.6556   30.9890    3.2830 H         1 UNK         0.0815 
    109 H109       28.3496   31.6729    2.3134 H         1 UNK         0.0815 
    110 H110       29.9894   27.9009    3.1548 H         1 UNK         0.2987 
    111 H111       30.8261   26.5493    4.7015 H         1 UNK         0.0949 
    112 H112       29.3740   25.1641    6.1141 H         1 UNK         0.0806 
    113 H113       28.6718   25.2936    4.5163 H         1 UNK         0.0806 
    114 H114       28.0044   26.2319    5.8496 H         1 UNK         0.0806 
    115 H115       30.9172   29.3354    5.1165 H         1 UNK         0.3010 
    116 H116       30.8746   29.6977    8.0869 H         1 UNK         0.0829 
    117 H117       30.7016   31.7856    5.8446 H         1 UNK         0.0813 
    118 H118       29.3210   31.1637    6.7483 H         1 UNK         0.0813 
    119 H119       30.5621   32.0912    7.5711 H         1 UNK         0.0813 
    120 H120       33.0217   28.5033    6.3008 H         1 UNK         0.3038 
    121 H121       35.2040   28.3488    6.1041 H         1 UNK         0.0769 
    122 H122       36.7764   29.4496    7.6524 H         1 UNK         0.0811 
    123 H123       35.4101   28.7900    8.5362 H         1 UNK         0.0811 
    124 H124       35.5193   30.5232    8.2398 H         1 UNK         0.0811 
    125 H125       34.4315   31.8176    6.3467 H         1 UNK         0.3204 
    126 H126       36.1321   32.5400    4.0194 H         1 UNK         0.0748 
    127 H127       35.3850   34.8548    4.5756 H         1 UNK         0.0771 
    128 H128       34.3450   34.2333    5.8517 H         1 UNK         0.0771 
    129 H129       36.0958   34.0714    5.9773 H         1 UNK         0.0771 
    130 H130       34.6808   30.7702    2.9733 H         1 UNK         0.2980 
    131 H131       31.9622   31.4316    2.3662 H         1 UNK         0.0545 
    132 H132       34.7465   32.6981    0.7923 H         1 UNK         0.3459 
    133 H133       33.9451   33.1041   -0.7053 H         1 UNK         0.3459 
    134 H134       31.9441   29.3326    1.0592 H         1 UNK         0.0616 
    135 H135       33.6857   29.2454    1.1295 H         1 UNK         0.0616 
    136 H136       34.8153   27.7994    2.5654 H         1 UNK         0.0634 
    137 H137       34.2959   27.1411    4.0930 H         1 UNK         0.0634 
@<TRIPOS>BOND
     1    1    2 1    
     2    1   72 1    
     3    1   73 1    
     4    1   74 1    
     5    2    3 2    
     6    2    4 am   BACKBONE|DICT|INTERRES
     7    4    5 1    
     8    4   75 1    
     9    5    6 1    
    10    5   35 1    
    11    5   76 1    
    12    6    7 1    
    13    6   77 1    
    14    6   78 1    
    15    7    8 1    
    16    8    9 1    
    17    8   79 1    
    18    8   80 1    
    19    9   10 ar   
    20    9   14 ar   
    21   10   11 ar   
    22   10   81 1    
    23   11   12 ar   
    24   11   71 1    
    25   12   13 ar   
    26   12   82 1    
    27   13   14 ar   
    28   13   15 1    
    29   14   83 1    
    30   15   16 1    
    31   15   84 1    
    32   15   85 1    
    33   16   17 1    
    34   17   18 1    
    35   17   86 1    
    36   17   87 1    
    37   18   19 1    
    38   18   37 1    
    39   18   88 1    
    40   19   20 am   BACKBONE|DICT|INTERRES
    41   19   89 1    
    42   20   21 2    
    43   20   22 1    
    44   22   23 1    
    45   22   24 1    
    46   22   90 1    
    47   23   91 1    
    48   23   92 1    
    49   23   93 1    
    50   24   25 am   BACKBONE|DICT|INTERRES
    51   24   94 1    
    52   25   26 2    
    53   25   27 1    
    54   27   28 1    
    55   27   29 1    
    56   27   95 1    
    57   28   96 1    
    58   28   97 1    
    59   28   98 1    
    60   29   30 am   BACKBONE|DICT|INTERRES
    61   29   99 1    
    62   30   31 2    
    63   30   32 1    
    64   32   33 1    
    65   32   34 1    
    66   32  100 1    
    67   33  101 1    
    68   33  102 1    
    69   33  103 1    
    70   34   35 am   BACKBONE|DICT|INTERRES
    71   34  104 1    
    72   35   36 2    
    73   37   38 2    
    74   37   39 am   BACKBONE|DICT|INTERRES
    75   39   40 1    
    76   39  105 1    
    77   40   41 1    
    78   40   42 1    
    79   40  106 1    
    80   41  107 1    
    81   41  108 1    
    82   41  109 1    
    83   42   43 2    
    84   42   44 am   BACKBONE|DICT|INTERRES
    85   44   45 1    
    86   44  110 1    
    87   45   46 1    
    88   45   47 1    
    89   45  111 1    
    90   46  112 1    
    91   46  113 1    
    92   46  114 1    
    93   47   48 2    
    94   47   49 am   BACKBONE|DICT|INTERRES
    95   49   50 1    
    96   49  115 1    
    97   50   51 1    
    98   50   52 1    
    99   50  116 1    
   100   51  117 1    
   101   51  118 1    
   102   51  119 1    
   103   52   53 2    
   104   52   54 am   BACKBONE|DICT|INTERRES
   105   54   55 1    
   106   54  120 1    
   107   55   56 1    
   108   55   57 1    
   109   55  121 1    
   110   56  122 1    
   111   56  123 1    
   112   56  124 1    
   113   57   58 2    
   114   57   59 am   BACKBONE|DICT|INTERRES
   115   59   60 1    
   116   59  125 1    
   117   60   61 1    
   118   60   62 1    
   119   60  126 1    
   120   61  127 1    
   121   61  128 1    
   122   61  129 1    
   123   62   63 2    
   124   62   64 am   BACKBONE|DICT|INTERRES
   125   64   65 1    
   126   64  130 1    
   127   65   66 1    
   128   65   69 1    
   129   65  131 1    
   130   66   67 am   BACKBONE|DICT|INTERRES
   131   66   68 2    
   132   67  132 1    
   133   67  133 1    
   134   69   70 1    
   135   69  134 1    
   136   69  135 1    
   137   70   71 1    
   138   71  136 1    
   139   71  137 1    
@<TRIPOS>SUBSTRUCTURE
     1 UNK         1 GROUP             0       ****    0 ROOT    
