@<TRIPOS>MOLECULE
3R136
137   139    1
SMALL
USER_CHARGES


@<TRIPOS>ATOM
      1 CA         27.9106   28.9025   -1.0833 C.3       0 UNK        -0.1979 
      2 C          28.1538   27.5213   -0.4962 C.2       0 UNK         0.4864 
      3 O          27.3502   27.0490    0.3106 O.2       0 UNK        -0.5359 
      4 N          29.2600   26.8793   -0.8984 N.am      1 UNK        -0.4318 
      5 CA         29.6953   25.5374   -0.4891 C.3       1 UNK         0.0824 
      6 C6         31.1009   25.2207   -1.0791 C.3       12 UNK        -0.0944 
      7 S7         31.6592   23.4837   -0.9712 S.3       12 UNK        -0.2672 
      8 C8         32.8742   23.5553    0.3819 C.3       12 UNK         0.0333 
      9 C9         32.2252   23.7232    1.7495 C.ar      12 UNK        -0.0807 
     10 C10        32.6093   24.7760    2.5865 C.ar      12 UNK        -0.0894 
     11 C11        32.0703   24.8917    3.8713 C.ar      12 UNK        -0.0804 
     12 C12        31.1331   23.9541    4.3122 C.ar      12 UNK        -0.0824 
     13 C13        30.7276   22.9062    3.4799 C.ar      12 UNK        -0.0762 
     14 C14        31.2816   22.7937    2.2018 C.ar      12 UNK        -0.0782 
     15 C15        29.7165   21.8778    3.9717 C.3       12 UNK         0.0230 
     16 S16        28.0195   22.2513    3.4197 S.3       12 UNK        -0.2608 
     17 C17        27.7016   23.8325    4.2703 C.3       12 UNK        -0.0989 
     18 CA         27.7208   25.0227    3.2690 C.3       5 UNK         0.0716 
     19 N          26.5273   25.0704    2.4080 N.am      5 UNK        -0.4135 
     20 C          25.2826   25.3651    2.8191 C.2       4 UNK         0.5031 
     21 O          24.9808   25.5066    4.0056 O.2       4 UNK        -0.5229 
     22 CA         24.1773   25.5634    1.7678 C.3       4 UNK         0.0329 
     23 CB         23.3074   26.7967    2.1020 C.3       4 UNK        -0.2001 
     24 N          24.6668   25.6737    0.3893 N.am      4 UNK        -0.4303 
     25 C          23.8978   25.4059   -0.6778 C.2       3 UNK         0.5044 
     26 O          22.7603   24.9376   -0.6051 O.2       3 UNK        -0.5152 
     27 CA         24.4739   25.7340   -2.0631 C.3       3 UNK         0.0319 
     28 CB         24.5720   27.2543   -2.2716 C.3       3 UNK        -0.2001 
     29 N          25.7753   25.1102   -2.2885 N.am      3 UNK        -0.4354 
     30 C          25.9689   23.7942   -2.4624 C.2       2 UNK         0.4964 
     31 O          25.0606   22.9629   -2.4836 O.2       2 UNK        -0.5047 
     32 CA         27.4191   23.3189   -2.6644 C.3       2 UNK         0.0288 
     33 CB         27.7022   23.0668   -4.1546 C.3       2 UNK        -0.2113 
     34 N          28.4203   24.2503   -2.1386 N.am      2 UNK        -0.4145 
     35 C          28.6163   24.4898   -0.8344 C.2       1 UNK         0.5006 
     36 O          27.9544   23.9700    0.0647 O.2       1 UNK        -0.5103 
     37 C          27.9740   26.3937    3.9392 C.2       5 UNK         0.5055 
     38 O          28.2025   26.4662    5.1486 O.2       5 UNK        -0.5220 
     39 N          27.8860   27.4626    3.1365 N.am      6 UNK        -0.4450 
     40 CA         27.9612   28.8521    3.5803 C.3       6 UNK         0.0367 
     41 CB         26.5365   29.3795    3.8387 C.3       6 UNK        -0.1929 
     42 C          28.7333   29.6858    2.5501 C.2       6 UNK         0.5070 
     43 O          28.2300   30.6978    2.0618 O.2       6 UNK        -0.5237 
     44 N          29.9595   29.2537    2.2342 N.am      7 UNK        -0.4739 
     45 CA         30.8891   29.8822    1.2867 C.3       7 UNK         0.0276 
     46 CB         31.9097   28.8228    0.8318 C.3       7 UNK        -0.1927 
     47 C          31.5746   31.1533    1.8365 C.2       7 UNK         0.5013 
     48 O          32.7699   31.3539    1.6082 O.2       7 UNK        -0.5193 
     49 N          30.8100   31.9919    2.5499 N.am      8 UNK        -0.4253 
     50 CA         31.2182   33.2426    3.1963 C.3       8 UNK         0.0242 
     51 CB         31.3851   34.3535    2.1335 C.3       8 UNK        -0.2000 
     52 C          32.4464   33.0426    4.1081 C.2       8 UNK         0.4948 
     53 O          32.4046   32.1864    4.9944 O.2       8 UNK        -0.5275 
     54 N          33.5204   33.8051    3.8606 N.am      9 UNK        -0.4246 
     55 CA         34.7814   33.7761    4.6050 C.3       9 UNK         0.0261 
     56 CB         35.7041   34.8878    4.0799 C.3       9 UNK        -0.1959 
     57 C          35.5108   32.4208    4.5842 C.2       9 UNK         0.5033 
     58 O          36.2449   32.1335    5.5309 O.2       9 UNK        -0.5390 
     59 N          35.2853   31.5937    3.5503 N.am      10 UNK        -0.4215 
     60 CA         35.8613   30.2474    3.4469 C.3       10 UNK         0.0240 
     61 CB         35.6894   29.7095    2.0179 C.3       10 UNK        -0.1982 
     62 C          35.2926   29.2567    4.4806 C.2       10 UNK         0.4970 
     63 O          35.9540   28.2585    4.7685 O.2       10 UNK        -0.4916 
     64 N          34.1105   29.5566    5.0349 N.am      11 UNK        -0.4279 
     65 CA         33.5072   28.8393    6.1664 C.3       11 UNK         0.1003 
     66 C          33.7529   29.5452    7.5330 C.2       11 UNK         0.5709 
     67 N          34.5678   30.5919    7.6173 N.am      11 UNK        -0.7358 
     68 O          33.2128   29.1196    8.5514 O.2       11 UNK        -0.4999 
     69 C69        32.0022   28.5435    5.9232 C.3       12 UNK        -0.0954 
     70 S70        31.6722   27.5659    4.4189 S.3       12 UNK        -0.2268 
     71 C71        32.5222   26.0077    4.7992 C.3       12 UNK         0.0203 
     72 H72        28.8433   29.3844   -1.3739 H         1 UNK         0.0888 
     73 H73        27.2751   28.8342   -1.9649 H         1 UNK         0.0888 
     74 H74        27.4148   29.5427   -0.3540 H         1 UNK         0.0888 
     75 H75        29.8589   27.3374   -1.5704 H         1 UNK         0.3017 
     76 H76        29.7918   25.5431    0.5985 H         1 UNK         0.0873 
     77 H77        31.8480   25.8606   -0.6084 H         1 UNK         0.0745 
     78 H78        31.1261   25.4826   -2.1382 H         1 UNK         0.0745 
     79 H79        33.4464   22.6267    0.3829 H         1 UNK         0.0705 
     80 H80        33.5907   24.3537    0.1819 H         1 UNK         0.0705 
     81 H81        33.3435   25.4957    2.2506 H         1 UNK         0.1334 
     82 H82        30.7258   24.0392    5.3102 H         1 UNK         0.1417 
     83 H83        30.9828   21.9764    1.5591 H         1 UNK         0.1562 
     84 H84        29.7367   21.8106    5.0606 H         1 UNK         0.0748 
     85 H85        29.9939   20.8885    3.6048 H         1 UNK         0.0748 
     86 H86        28.4411   23.9559    5.0606 H         1 UNK         0.0940 
     87 H87        26.7453   23.7667    4.7897 H         1 UNK         0.0940 
     88 H88        28.5734   24.8813    2.6036 H         1 UNK         0.0703 
     89 H89        26.7126   24.9078    1.4242 H         1 UNK         0.3081 
     90 H90        23.5505   24.6722    1.8431 H         1 UNK         0.0719 
     91 H91        22.4679   26.8977    1.4143 H         1 UNK         0.0809 
     92 H92        23.8902   27.7174    2.0560 H         1 UNK         0.0809 
     93 H93        22.8835   26.7276    3.1046 H         1 UNK         0.0809 
     94 H94        25.5854   26.0887    0.2579 H         1 UNK         0.2990 
     95 H95        23.7836   25.3415   -2.8134 H         1 UNK         0.0690 
     96 H96        24.9759   27.4986   -3.2542 H         1 UNK         0.0788 
     97 H97        25.1991   27.7302   -1.5184 H         1 UNK         0.0788 
     98 H98        23.5859   27.7159   -2.2043 H         1 UNK         0.0788 
     99 H99        26.5821   25.7147   -2.2847 H         1 UNK         0.2993 
    100 H100       27.5258   22.3726   -2.1291 H         1 UNK         0.0949 
    101 H101       28.7002   22.6543   -4.3047 H         1 UNK         0.0767 
    102 H102       26.9922   22.3507   -4.5711 H         1 UNK         0.0767 
    103 H103       27.6237   23.9827   -4.7419 H         1 UNK         0.0767 
    104 H104       29.0036   24.7220   -2.8143 H         1 UNK         0.3013 
    105 H105       27.6959   27.3187    2.1457 H         1 UNK         0.3121 
    106 H106       28.5267   28.9166    4.5126 H         1 UNK         0.0774 
    107 H107       26.5576   30.4111    4.1921 H         1 UNK         0.0815 
    108 H108       25.9296   29.3540    2.9327 H         1 UNK         0.0815 
    109 H109       26.0267   28.7866    4.5984 H         1 UNK         0.0815 
    110 H110       30.3194   28.4524    2.7380 H         1 UNK         0.2987 
    111 H111       30.3213   30.1977    0.4098 H         1 UNK         0.0949 
    112 H112       32.5388   28.4916    1.6581 H         1 UNK         0.0806 
    113 H113       31.4148   27.9446    0.4250 H         1 UNK         0.0806 
    114 H114       32.5668   29.2135    0.0538 H         1 UNK         0.0806 
    115 H115       29.8336   31.7346    2.6513 H         1 UNK         0.3010 
    116 H116       30.3984   33.5328    3.8551 H         1 UNK         0.0829 
    117 H117       30.4676   34.4799    1.5584 H         1 UNK         0.0813 
    118 H118       31.6009   35.3185    2.5943 H         1 UNK         0.0813 
    119 H119       32.1837   34.1298    1.4248 H         1 UNK         0.0813 
    120 H120       33.4651   34.4609    3.0947 H         1 UNK         0.3038 
    121 H121       34.5446   33.9943    5.6485 H         1 UNK         0.0769 
    122 H122       36.6429   34.9110    4.6355 H         1 UNK         0.0811 
    123 H123       35.2444   35.8706    4.1863 H         1 UNK         0.0811 
    124 H124       35.9525   34.7434    3.0276 H         1 UNK         0.0811 
    125 H125       34.6213   31.8640    2.8332 H         1 UNK         0.3204 
    126 H126       36.9327   30.3317    3.6418 H         1 UNK         0.0748 
    127 H127       36.1920   28.7484    1.9012 H         1 UNK         0.0771 
    128 H128       34.6413   29.5569    1.7675 H         1 UNK         0.0771 
    129 H129       36.1159   30.3901    1.2810 H         1 UNK         0.0771 
    130 H130       33.6383   30.4123    4.7672 H         1 UNK         0.2980 
    131 H131       34.0046   27.8761    6.2811 H         1 UNK         0.0545 
    132 H132       35.0544   30.9505    6.8056 H         1 UNK         0.3459 
    133 H133       34.7141   31.0225    8.5162 H         1 UNK         0.3459 
    134 H134       31.4441   29.4783    5.8440 H         1 UNK         0.0616 
    135 H135       31.5708   28.0020    6.7669 H         1 UNK         0.0616 
    136 H136       33.5994   26.1508    4.7027 H         1 UNK         0.0634 
    137 H137       32.3348   25.7356    5.8390 H         1 UNK         0.0634 
@<TRIPOS>BOND
     1    1    2 1    
     2    1   72 1    
     3    1   73 1    
     4    1   74 1    
     5    2    3 2    
     6    2    4 am   BACKBONE|DICT|INTERRES
     7    4    5 1    
     8    4   75 1    
     9    5    6 1    
    10    5   35 1    
    11    5   76 1    
    12    6    7 1    
    13    6   77 1    
    14    6   78 1    
    15    7    8 1    
    16    8    9 1    
    17    8   79 1    
    18    8   80 1    
    19    9   10 ar   
    20    9   14 ar   
    21   10   11 ar   
    22   10   81 1    
    23   11   12 ar   
    24   11   71 1    
    25   12   13 ar   
    26   12   82 1    
    27   13   14 ar   
    28   13   15 1    
    29   14   83 1    
    30   15   16 1    
    31   15   84 1    
    32   15   85 1    
    33   16   17 1    
    34   17   18 1    
    35   17   86 1    
    36   17   87 1    
    37   18   19 1    
    38   18   37 1    
    39   18   88 1    
    40   19   20 am   BACKBONE|DICT|INTERRES
    41   19   89 1    
    42   20   21 2    
    43   20   22 1    
    44   22   23 1    
    45   22   24 1    
    46   22   90 1    
    47   23   91 1    
    48   23   92 1    
    49   23   93 1    
    50   24   25 am   BACKBONE|DICT|INTERRES
    51   24   94 1    
    52   25   26 2    
    53   25   27 1    
    54   27   28 1    
    55   27   29 1    
    56   27   95 1    
    57   28   96 1    
    58   28   97 1    
    59   28   98 1    
    60   29   30 am   BACKBONE|DICT|INTERRES
    61   29   99 1    
    62   30   31 2    
    63   30   32 1    
    64   32   33 1    
    65   32   34 1    
    66   32  100 1    
    67   33  101 1    
    68   33  102 1    
    69   33  103 1    
    70   34   35 am   BACKBONE|DICT|INTERRES
    71   34  104 1    
    72   35   36 2    
    73   37   38 2    
    74   37   39 am   BACKBONE|DICT|INTERRES
    75   39   40 1    
    76   39  105 1    
    77   40   41 1    
    78   40   42 1    
    79   40  106 1    
    80   41  107 1    
    81   41  108 1    
    82   41  109 1    
    83   42   43 2    
    84   42   44 am   BACKBONE|DICT|INTERRES
    85   44   45 1    
    86   44  110 1    
    87   45   46 1    
    88   45   47 1    
    89   45  111 1    
    90   46  112 1    
    91   46  113 1    
    92   46  114 1    
    93   47   48 2    
    94   47   49 am   BACKBONE|DICT|INTERRES
    95   49   50 1    
    96   49  115 1    
    97   50   51 1    
    98   50   52 1    
    99   50  116 1    
   100   51  117 1    
   101   51  118 1    
   102   51  119 1    
   103   52   53 2    
   104   52   54 am   BACKBONE|DICT|INTERRES
   105   54   55 1    
   106   54  120 1    
   107   55   56 1    
   108   55   57 1    
   109   55  121 1    
   110   56  122 1    
   111   56  123 1    
   112   56  124 1    
   113   57   58 2    
   114   57   59 am   BACKBONE|DICT|INTERRES
   115   59   60 1    
   116   59  125 1    
   117   60   61 1    
   118   60   62 1    
   119   60  126 1    
   120   61  127 1    
   121   61  128 1    
   122   61  129 1    
   123   62   63 2    
   124   62   64 am   BACKBONE|DICT|INTERRES
   125   64   65 1    
   126   64  130 1    
   127   65   66 1    
   128   65   69 1    
   129   65  131 1    
   130   66   67 am   BACKBONE|DICT|INTERRES
   131   66   68 2    
   132   67  132 1    
   133   67  133 1    
   134   69   70 1    
   135   69  134 1    
   136   69  135 1    
   137   70   71 1    
   138   71  136 1    
   139   71  137 1    
@<TRIPOS>SUBSTRUCTURE
     1 UNK         1 GROUP             0       ****    0 ROOT    
