@<TRIPOS>MOLECULE
3R136
137   139    1
SMALL
USER_CHARGES


@<TRIPOS>ATOM
      1 CA         30.8443   24.3127   -3.3599 C.3       0 UNK        -0.1979 
      2 C          30.2519   24.0498   -1.9849 C.2       0 UNK         0.4864 
      3 O          29.8152   24.9926   -1.3211 O.2       0 UNK        -0.5359 
      4 N          30.2099   22.7783   -1.5609 N.am      1 UNK        -0.4318 
      5 CA         29.7496   22.2849   -0.2505 C.3       1 UNK         0.0824 
      6 C6         30.2745   20.8494    0.0195 C.3       12 UNK        -0.0944 
      7 S7         32.0938   20.8092    0.1561 S.3       12 UNK        -0.2672 
      8 C8         32.3238   20.7099    1.9620 C.3       12 UNK         0.0333 
      9 C9         31.7568   21.9277    2.6798 C.ar      12 UNK        -0.0807 
     10 C10        32.4663   23.1316    2.6881 C.ar      12 UNK        -0.0894 
     11 C11        31.9466   24.2509    3.3423 C.ar      12 UNK        -0.0804 
     12 C12        30.7152   24.1584    3.9962 C.ar      12 UNK        -0.0824 
     13 C13        29.9795   22.9667    3.9812 C.ar      12 UNK        -0.0762 
     14 C14        30.5194   21.8533    3.3290 C.ar      12 UNK        -0.0782 
     15 C15        28.6130   22.8195    4.6593 C.3       12 UNK         0.0230 
     16 S16        27.7670   24.3688    5.1459 S.3       12 UNK        -0.2608 
     17 C17        27.4637   25.1727    3.5365 C.3       12 UNK        -0.0989 
     18 CA         28.0733   26.6010    3.4834 C.3       5 UNK         0.0716 
     19 N          28.6803   26.8900    2.1853 N.am      5 UNK        -0.4135 
     20 C          29.6511   27.7905    1.9830 C.2       4 UNK         0.5031 
     21 O          30.2365   28.3769    2.8903 O.2       4 UNK        -0.5229 
     22 CA         30.0525   28.0822    0.5273 C.3       4 UNK         0.0329 
     23 CB         31.4296   27.4709    0.2182 C.3       4 UNK        -0.2001 
     24 N          29.0706   27.6003   -0.4495 N.am      4 UNK        -0.4303 
     25 C          27.8941   28.1987   -0.6879 C.2       3 UNK         0.5044 
     26 O          27.5200   29.2227   -0.1186 O.2       3 UNK        -0.5152 
     27 CA         26.9444   27.5013   -1.6747 C.3       3 UNK         0.0319 
     28 CB         27.4255   27.6939   -3.1218 C.3       3 UNK        -0.2001 
     29 N          26.7760   26.0722   -1.3997 N.am      3 UNK        -0.4354 
     30 C          26.3034   25.5519   -0.2568 C.2       2 UNK         0.4964 
     31 O          25.9646   26.2221    0.7176 O.2       2 UNK        -0.5047 
     32 CA         26.3067   24.0258   -0.1574 C.3       2 UNK         0.0288 
     33 CB         25.3583   23.3754   -1.1831 C.3       2 UNK        -0.2113 
     34 N          27.6827   23.5869   -0.3461 N.am      2 UNK        -0.4145 
     35 C          28.2187   22.4055   -0.0395 C.2       1 UNK         0.5006 
     36 O          27.5657   21.4579    0.4019 O.2       1 UNK        -0.5103 
     37 C          27.0533   27.6974    3.8489 C.2       5 UNK         0.5055 
     38 O          27.0617   28.1826    4.9808 O.2       5 UNK        -0.5220 
     39 N          26.2178   28.0895    2.8737 N.am      6 UNK        -0.4450 
     40 CA         25.2785   29.2079    2.9692 C.3       6 UNK         0.0367 
     41 CB         24.3358   29.1966    1.7545 C.3       6 UNK        -0.1929 
     42 C          26.0064   30.5557    3.0985 C.2       6 UNK         0.5070 
     43 O          25.7633   31.2914    4.0559 O.2       6 UNK        -0.5237 
     44 N          26.9298   30.8360    2.1695 N.am      7 UNK        -0.4739 
     45 CA         27.8349   31.9859    2.2121 C.3       7 UNK         0.0276 
     46 CB         28.2011   32.3935    0.7726 C.3       7 UNK        -0.1927 
     47 C          29.0709   31.6387    3.0590 C.2       7 UNK         0.5013 
     48 O          30.1821   31.5927    2.5300 O.2       7 UNK        -0.5193 
     49 N          28.8378   31.3817    4.3556 N.am      8 UNK        -0.4253 
     50 CA         29.7664   30.8047    5.3396 C.3       8 UNK         0.0242 
     51 CB         29.1124   30.8483    6.7295 C.3       8 UNK        -0.2000 
     52 C          31.1782   31.4151    5.3969 C.2       8 UNK         0.4948 
     53 O          32.1282   30.6968    5.7087 O.2       8 UNK        -0.5275 
     54 N          31.3073   32.7068    5.0621 N.am      9 UNK        -0.4246 
     55 CA         32.5818   33.4179    4.9235 C.3       9 UNK         0.0261 
     56 CB         32.3053   34.8975    4.6131 C.3       9 UNK        -0.1959 
     57 C          33.5250   32.8133    3.8640 C.2       9 UNK         0.5033 
     58 O          34.7425   32.9184    4.0206 O.2       9 UNK        -0.5390 
     59 N          32.9671   32.1630    2.8306 N.am      10 UNK        -0.4215 
     60 CA         33.7227   31.4468    1.7987 C.3       10 UNK         0.0240 
     61 CB         32.8016   31.1530    0.6043 C.3       10 UNK        -0.1982 
     62 C          34.3743   30.1473    2.3076 C.2       10 UNK         0.4970 
     63 O          35.3060   29.6622    1.6649 O.2       10 UNK        -0.4916 
     64 N          33.8938   29.6113    3.4383 N.am      11 UNK        -0.4279 
     65 CA         34.4667   28.4417    4.1186 C.3       11 UNK         0.1003 
     66 C          35.7649   28.7457    4.9257 C.2       11 UNK         0.5709 
     67 N          36.1671   30.0006    5.1003 N.am      11 UNK        -0.7358 
     68 O          36.4322   27.8248    5.3902 O.2       11 UNK        -0.4999 
     69 C69        33.3893   27.7224    4.9782 C.3       12 UNK        -0.0954 
     70 S70        33.5144   25.9044    4.9128 S.3       12 UNK        -0.2268 
     71 C71        32.6910   25.5748    3.3246 C.3       12 UNK         0.0203 
     72 H72        31.6914   24.9929   -3.2760 H         1 UNK         0.0888 
     73 H73        31.1900   23.3963   -3.8377 H         1 UNK         0.0888 
     74 H74        30.0990   24.7745   -4.0067 H         1 UNK         0.0888 
     75 H75        30.5716   22.0592   -2.1709 H         1 UNK         0.3017 
     76 H76        30.1874   22.9412    0.5048 H         1 UNK         0.0873 
     77 H77        29.8508   20.4303    0.9331 H         1 UNK         0.0745 
     78 H78        29.9694   20.1750   -0.7826 H         1 UNK         0.0745 
     79 H79        33.3900   20.6250    2.1773 H         1 UNK         0.0705 
     80 H80        31.8655   19.7924    2.3348 H         1 UNK         0.0705 
     81 H81        33.4177   23.1969    2.1776 H         1 UNK         0.1334 
     82 H82        30.3428   25.0271    4.5163 H         1 UNK         0.1417 
     83 H83        29.9679   20.9226    3.3218 H         1 UNK         0.1562 
     84 H84        28.7420   22.2107    5.5551 H         1 UNK         0.0748 
     85 H85        27.9429   22.2610    4.0033 H         1 UNK         0.0748 
     86 H86        26.3905   25.1733    3.3342 H         1 UNK         0.0940 
     87 H87        27.8989   24.5446    2.7575 H         1 UNK         0.0940 
     88 H88        28.8700   26.6705    4.2263 H         1 UNK         0.0703 
     89 H89        28.2401   26.4781    1.3770 H         1 UNK         0.3081 
     90 H90        30.1267   29.1666    0.4261 H         1 UNK         0.0719 
     91 H91        31.4268   26.3870    0.3400 H         1 UNK         0.0809 
     92 H92        31.7439   27.6942   -0.8013 H         1 UNK         0.0809 
     93 H93        32.1927   27.8708    0.8877 H         1 UNK         0.0809 
     94 H94        29.2990   26.7308   -0.9285 H         1 UNK         0.2990 
     95 H95        25.9640   27.9722   -1.5758 H         1 UNK         0.0690 
     96 H96        28.3827   27.2018   -3.3005 H         1 UNK         0.0788 
     97 H97        27.5545   28.7525   -3.3522 H         1 UNK         0.0788 
     98 H98        26.7046   27.2949   -3.8356 H         1 UNK         0.0788 
     99 H99        27.0398   25.4412   -2.1424 H         1 UNK         0.2993 
    100 H100       25.9845   23.7507    0.8493 H         1 UNK         0.0949 
    101 H101       25.6804   23.5518   -2.2098 H         1 UNK         0.0767 
    102 H102       25.2980   22.2969   -1.0365 H         1 UNK         0.0767 
    103 H103       24.3463   23.7701   -1.0828 H         1 UNK         0.0767 
    104 H104       28.3364   24.2904   -0.6912 H         1 UNK         0.3013 
    105 H105       26.2282   27.5826    1.9921 H         1 UNK         0.3121 
    106 H106       24.6763   29.0652    3.8690 H         1 UNK         0.0774 
    107 H107       23.6227   30.0204    1.8062 H         1 UNK         0.0815 
    108 H108       24.8807   29.2935    0.8147 H         1 UNK         0.0815 
    109 H109       23.7608   28.2715    1.7099 H         1 UNK         0.0815 
    110 H110       27.0906   30.1714    1.4139 H         1 UNK         0.2987 
    111 H111       27.3339   32.8350    2.6823 H         1 UNK         0.0949 
    112 H112       28.7380   31.6003    0.2508 H         1 UNK         0.0806 
    113 H113       27.3120   32.6342    0.1898 H         1 UNK         0.0806 
    114 H114       28.8421   33.2759    0.7690 H         1 UNK         0.0806 
    115 H115       27.8699   31.4373    4.6508 H         1 UNK         0.3010 
    116 H116       29.8925   29.7561    5.0661 H         1 UNK         0.0829 
    117 H117       29.7632   30.4022    7.4831 H         1 UNK         0.0813 
    118 H118       28.8999   31.8709    7.0437 H         1 UNK         0.0813 
    119 H119       28.1761   30.2893    6.7433 H         1 UNK         0.0813 
    120 H120       30.4721   33.2141    4.8086 H         1 UNK         0.3038 
    121 H121       33.0951   33.3586    5.8856 H         1 UNK         0.0769 
    122 H122       33.2370   35.4591    4.5297 H         1 UNK         0.0811 
    123 H123       31.7168   35.3665    5.4019 H         1 UNK         0.0811 
    124 H124       31.7665   35.0188    3.6724 H         1 UNK         0.0811 
    125 H125       31.9514   32.0780    2.7843 H         1 UNK         0.3204 
    126 H126       34.5266   32.1005    1.4538 H         1 UNK         0.0748 
    127 H127       33.3494   30.6700   -0.2059 H         1 UNK         0.0771 
    128 H128       31.9860   30.4889    0.8879 H         1 UNK         0.0771 
    129 H129       32.3643   32.0675    0.2031 H         1 UNK         0.0771 
    130 H130       33.1483   30.0831    3.9363 H         1 UNK         0.2980 
    131 H131       34.7749   27.7546    3.3285 H         1 UNK         0.0545 
    132 H132       35.6367   30.7720    4.7221 H         1 UNK         0.3459 
    133 H133       37.0125   30.1778    5.6190 H         1 UNK         0.3459 
    134 H134       33.4373   28.0400    6.0216 H         1 UNK         0.0616 
    135 H135       32.3837   27.9947    4.6527 H         1 UNK         0.0616 
    136 H136       33.4339   25.5950    2.5259 H         1 UNK         0.0634 
    137 H137       31.9815   26.3687    3.0978 H         1 UNK         0.0634 
@<TRIPOS>BOND
     1    1    2 1    
     2    1   72 1    
     3    1   73 1    
     4    1   74 1    
     5    2    3 2    
     6    2    4 am   BACKBONE|DICT|INTERRES
     7    4    5 1    
     8    4   75 1    
     9    5    6 1    
    10    5   35 1    
    11    5   76 1    
    12    6    7 1    
    13    6   77 1    
    14    6   78 1    
    15    7    8 1    
    16    8    9 1    
    17    8   79 1    
    18    8   80 1    
    19    9   10 ar   
    20    9   14 ar   
    21   10   11 ar   
    22   10   81 1    
    23   11   12 ar   
    24   11   71 1    
    25   12   13 ar   
    26   12   82 1    
    27   13   14 ar   
    28   13   15 1    
    29   14   83 1    
    30   15   16 1    
    31   15   84 1    
    32   15   85 1    
    33   16   17 1    
    34   17   18 1    
    35   17   86 1    
    36   17   87 1    
    37   18   19 1    
    38   18   37 1    
    39   18   88 1    
    40   19   20 am   BACKBONE|DICT|INTERRES
    41   19   89 1    
    42   20   21 2    
    43   20   22 1    
    44   22   23 1    
    45   22   24 1    
    46   22   90 1    
    47   23   91 1    
    48   23   92 1    
    49   23   93 1    
    50   24   25 am   BACKBONE|DICT|INTERRES
    51   24   94 1    
    52   25   26 2    
    53   25   27 1    
    54   27   28 1    
    55   27   29 1    
    56   27   95 1    
    57   28   96 1    
    58   28   97 1    
    59   28   98 1    
    60   29   30 am   BACKBONE|DICT|INTERRES
    61   29   99 1    
    62   30   31 2    
    63   30   32 1    
    64   32   33 1    
    65   32   34 1    
    66   32  100 1    
    67   33  101 1    
    68   33  102 1    
    69   33  103 1    
    70   34   35 am   BACKBONE|DICT|INTERRES
    71   34  104 1    
    72   35   36 2    
    73   37   38 2    
    74   37   39 am   BACKBONE|DICT|INTERRES
    75   39   40 1    
    76   39  105 1    
    77   40   41 1    
    78   40   42 1    
    79   40  106 1    
    80   41  107 1    
    81   41  108 1    
    82   41  109 1    
    83   42   43 2    
    84   42   44 am   BACKBONE|DICT|INTERRES
    85   44   45 1    
    86   44  110 1    
    87   45   46 1    
    88   45   47 1    
    89   45  111 1    
    90   46  112 1    
    91   46  113 1    
    92   46  114 1    
    93   47   48 2    
    94   47   49 am   BACKBONE|DICT|INTERRES
    95   49   50 1    
    96   49  115 1    
    97   50   51 1    
    98   50   52 1    
    99   50  116 1    
   100   51  117 1    
   101   51  118 1    
   102   51  119 1    
   103   52   53 2    
   104   52   54 am   BACKBONE|DICT|INTERRES
   105   54   55 1    
   106   54  120 1    
   107   55   56 1    
   108   55   57 1    
   109   55  121 1    
   110   56  122 1    
   111   56  123 1    
   112   56  124 1    
   113   57   58 2    
   114   57   59 am   BACKBONE|DICT|INTERRES
   115   59   60 1    
   116   59  125 1    
   117   60   61 1    
   118   60   62 1    
   119   60  126 1    
   120   61  127 1    
   121   61  128 1    
   122   61  129 1    
   123   62   63 2    
   124   62   64 am   BACKBONE|DICT|INTERRES
   125   64   65 1    
   126   64  130 1    
   127   65   66 1    
   128   65   69 1    
   129   65  131 1    
   130   66   67 am   BACKBONE|DICT|INTERRES
   131   66   68 2    
   132   67  132 1    
   133   67  133 1    
   134   69   70 1    
   135   69  134 1    
   136   69  135 1    
   137   70   71 1    
   138   71  136 1    
   139   71  137 1    
@<TRIPOS>SUBSTRUCTURE
     1 UNK         1 GROUP             0       ****    0 ROOT    
