@<TRIPOS>MOLECULE
3R136
137   139    1
SMALL
USER_CHARGES


@<TRIPOS>ATOM
      1 CA         26.5388   22.6236    1.1299 C.3       0 UNK        -0.1979 
      2 C          27.6524   22.2038    0.1837 C.2       0 UNK         0.4864 
      3 O          28.0401   21.0342    0.1676 O.2       0 UNK        -0.5359 
      4 N          28.1600   23.1543   -0.6038 N.am      1 UNK        -0.4318 
      5 CA         29.2063   22.9628   -1.6054 C.3       1 UNK         0.0824 
      6 C6         30.6242   23.2765   -1.0491 C.3       12 UNK        -0.0944 
      7 S7         30.8287   24.9586   -0.3574 S.3       12 UNK        -0.2672 
      8 C8         32.1493   24.6987    0.8681 C.3       12 UNK         0.0333 
      9 C9         31.6547   24.8842    2.2963 C.ar      12 UNK        -0.0807 
     10 C10        32.1073   25.9681    3.0560 C.ar      12 UNK        -0.0894 
     11 C11        31.7052   26.1215    4.3853 C.ar      12 UNK        -0.0804 
     12 C12        30.8392   25.1838    4.9543 C.ar      12 UNK        -0.0824 
     13 C13        30.3692   24.1016    4.2038 C.ar      12 UNK        -0.0762 
     14 C14        30.7801   23.9567    2.8739 C.ar      12 UNK        -0.0782 
     15 C15        29.4428   23.0747    4.8417 C.3       12 UNK         0.0230 
     16 S16        27.6890   23.3970    4.4706 S.3       12 UNK        -0.2608 
     17 C17        27.3793   24.9574    5.3648 C.3       12 UNK        -0.0989 
     18 CA         27.4305   26.1786    4.4168 C.3       5 UNK         0.0716 
     19 N          26.4078   26.1181    3.3697 N.am      5 UNK        -0.4135 
     20 C          26.3223   26.9839    2.3540 C.2       4 UNK         0.5031 
     21 O          27.0915   27.9379    2.2058 O.2       4 UNK        -0.5229 
     22 CA         25.1698   26.7639    1.3574 C.3       4 UNK         0.0329 
     23 CB         23.8888   27.4527    1.8554 C.3       4 UNK        -0.2001 
     24 N          25.4982   27.2665    0.0201 N.am      4 UNK        -0.4303 
     25 C          26.4801   26.7727   -0.7439 C.2       3 UNK         0.5044 
     26 O          27.1420   25.7742   -0.4405 O.2       3 UNK        -0.5152 
     27 CA         26.7711   27.5062   -2.0631 C.3       3 UNK         0.0319 
     28 CB         27.0962   28.9972   -1.8509 C.3       3 UNK        -0.2001 
     29 N          27.9060   26.8382   -2.6872 N.am      3 UNK        -0.4354 
     30 C          28.1011   26.6291   -3.9925 C.2       2 UNK         0.4964 
     31 O          27.4130   27.1315   -4.8817 O.2       2 UNK        -0.5047 
     32 CA         29.2519   25.6728   -4.3675 C.3       2 UNK         0.0288 
     33 CB         30.5131   26.4688   -4.7408 C.3       2 UNK        -0.2113 
     34 N          29.5827   24.7258   -3.2946 N.am      2 UNK        -0.4145 
     35 C          28.7861   23.7329   -2.8727 C.2       1 UNK         0.5006 
     36 O          27.7318   23.4279   -3.4353 O.2       1 UNK        -0.5103 
     37 C          27.3332   27.5025    5.2000 C.2       5 UNK         0.5055 
     38 O          26.2483   27.8528    5.6679 O.2       5 UNK        -0.5220 
     39 N          28.4651   28.2150    5.2775 N.am      6 UNK        -0.4450 
     40 CA         28.6654   29.5587    5.8397 C.3       6 UNK         0.0367 
     41 CB         28.1582   29.6679    7.2929 C.3       6 UNK        -0.1929 
     42 C          28.1502   30.7147    4.9563 C.2       6 UNK         0.5070 
     43 O          28.4760   31.8648    5.2532 O.2       6 UNK        -0.5237 
     44 N          27.4123   30.4216    3.8747 N.am      7 UNK        -0.4739 
     45 CA         27.1638   31.3676    2.7797 C.3       7 UNK         0.0276 
     46 CB         25.8141   31.0640    2.1088 C.3       7 UNK        -0.1927 
     47 C          28.3133   31.3009    1.7595 C.2       7 UNK         0.5013 
     48 O          28.7111   32.3340    1.2192 O.2       7 UNK        -0.5193 
     49 N          28.8402   30.0865    1.5462 N.am      8 UNK        -0.4253 
     50 CA         30.0735   29.7899    0.8201 C.3       8 UNK         0.0242 
     51 CB         30.2104   28.2625    0.7103 C.3       8 UNK        -0.2000 
     52 C          31.3214   30.3849    1.5007 C.2       8 UNK         0.4948 
     53 O          31.2971   30.6892    2.6966 O.2       8 UNK        -0.5275 
     54 N          32.3964   30.5183    0.7135 N.am      9 UNK        -0.4246 
     55 CA         33.7034   31.0254    1.1390 C.3       9 UNK         0.0261 
     56 CB         34.5785   31.2304   -0.1104 C.3       9 UNK        -0.1959 
     57 C          34.4148   30.1058    2.1505 C.2       9 UNK         0.5033 
     58 O          34.0971   28.9173    2.2378 O.2       9 UNK        -0.5390 
     59 N          35.3995   30.6835    2.8532 N.am      10 UNK        -0.4215 
     60 CA         36.1896   30.0937    3.9412 C.3       10 UNK         0.0240 
     61 CB         36.9284   28.8109    3.4896 C.3       10 UNK        -0.1982 
     62 C          35.3567   29.9254    5.2283 C.2       10 UNK         0.4970 
     63 O          34.3991   30.6749    5.4318 O.2       10 UNK        -0.4916 
     64 N          35.7750   28.9959    6.0978 N.am      11 UNK        -0.4279 
     65 CA         35.2044   28.7262    7.4322 C.3       11 UNK         0.1003 
     66 C          35.4240   29.8659    8.4759 C.2       11 UNK         0.5709 
     67 N          36.3410   30.8004    8.2527 N.am      11 UNK        -0.7358 
     68 O          34.7816   29.8892    9.5236 O.2       11 UNK        -0.4999 
     69 C69        33.7293   28.2303    7.3895 C.3       12 UNK        -0.0954 
     70 S70        33.5136   26.7356    6.3679 S.3       12 UNK        -0.2268 
     71 C71        32.2188   27.2859    5.2175 C.3       12 UNK         0.0203 
     72 H72        26.6569   23.6623    1.4383 H         1 UNK         0.0888 
     73 H73        25.5697   22.5143    0.6442 H         1 UNK         0.0888 
     74 H74        26.5448   22.0030    2.0253 H         1 UNK         0.0888 
     75 H75        27.7862   24.1026   -0.5479 H         1 UNK         0.3017 
     76 H76        29.2100   21.9149   -1.9134 H         1 UNK         0.0873 
     77 H77        31.3840   23.1138   -1.8156 H         1 UNK         0.0745 
     78 H78        30.8466   22.5527   -0.2636 H         1 UNK         0.0745 
     79 H79        32.9540   25.4029    0.6509 H         1 UNK         0.0705 
     80 H80        32.5877   23.7058    0.7617 H         1 UNK         0.0705 
     81 H81        32.7865   26.6870    2.6180 H         1 UNK         0.1334 
     82 H82        30.5428   25.2926    5.9886 H         1 UNK         0.1417 
     83 H83        30.4252   23.1188    2.2889 H         1 UNK         0.1562 
     84 H84        29.5867   23.0444    5.9230 H         1 UNK         0.0748 
     85 H85        29.6987   22.0789    4.4768 H         1 UNK         0.0748 
     86 H86        28.1044   25.0572    6.1743 H         1 UNK         0.0940 
     87 H87        26.4025   24.8899    5.8478 H         1 UNK         0.0940 
     88 H88        28.3922   26.1636    3.8997 H         1 UNK         0.0703 
     89 H89        25.7304   25.3751    3.4516 H         1 UNK         0.3081 
     90 H90        24.9820   25.6912    1.2757 H         1 UNK         0.0719 
     91 H91        24.0158   28.5318    1.9445 H         1 UNK         0.0809 
     92 H92        23.0513   27.2679    1.1824 H         1 UNK         0.0809 
     93 H93        23.5994   27.0793    2.8386 H         1 UNK         0.0809 
     94 H94        25.0098   28.0943   -0.2864 H         1 UNK         0.2990 
     95 H95        25.8905   27.4078   -2.7012 H         1 UNK         0.0690 
     96 H96        27.3635   29.4799   -2.7911 H         1 UNK         0.0788 
     97 H97        27.9267   29.1348   -1.1599 H         1 UNK         0.0788 
     98 H98        26.2418   29.5395   -1.4453 H         1 UNK         0.0788 
     99 H99        28.4799   26.3268   -2.0284 H         1 UNK         0.2993 
    100 H100       28.9309   25.1006   -5.2406 H         1 UNK         0.0949 
    101 H101       30.3075   27.1664   -5.5541 H         1 UNK         0.0767 
    102 H102       30.8871   27.0514   -3.8977 H         1 UNK         0.0767 
    103 H103       31.3139   25.8092   -5.0761 H         1 UNK         0.0767 
    104 H104       30.4143   24.9212   -2.7521 H         1 UNK         0.3013 
    105 H105       29.2786   27.8340    4.8144 H         1 UNK         0.3121 
    106 H106       29.7484   29.6893    5.8734 H         1 UNK         0.0774 
    107 H107       28.4822   30.6058    7.7456 H         1 UNK         0.0815 
    108 H108       27.0699   29.6469    7.3499 H         1 UNK         0.0815 
    109 H109       28.5458   28.8594    7.9126 H         1 UNK         0.0815 
    110 H110       27.1837   29.4524    3.6882 H         1 UNK         0.2987 
    111 H111       27.1203   32.3846    3.1758 H         1 UNK         0.0949 
    112 H112       25.5682   31.8337    1.3762 H         1 UNK         0.0806 
    113 H113       25.8246   30.1120    1.5797 H         1 UNK         0.0806 
    114 H114       25.0035   31.0375    2.8371 H         1 UNK         0.0806 
    115 H115       28.3700   29.2906    1.9683 H         1 UNK         0.3010 
    116 H116       29.9854   30.2179   -0.1804 H         1 UNK         0.0829 
    117 H117       29.3562   27.8132    0.2044 H         1 UNK         0.0813 
    118 H118       31.1023   27.9835    0.1483 H         1 UNK         0.0813 
    119 H119       30.2884   27.7963    1.6931 H         1 UNK         0.0813 
    120 H120       32.3346   30.1990   -0.2419 H         1 UNK         0.3038 
    121 H121       33.5403   31.9937    1.6174 H         1 UNK         0.0769 
    122 H122       35.5488   31.6553    0.1500 H         1 UNK         0.0811 
    123 H123       34.1096   31.9156   -0.8170 H         1 UNK         0.0811 
    124 H124       34.7659   30.2888   -0.6285 H         1 UNK         0.0811 
    125 H125       35.5586   31.6705    2.7047 H         1 UNK         0.3204 
    126 H126       36.9524   30.8363    4.1797 H         1 UNK         0.0748 
    127 H127       37.7123   28.5333    4.1949 H         1 UNK         0.0771 
    128 H128       36.2521   27.9599    3.3980 H         1 UNK         0.0771 
    129 H129       37.4119   28.9546    2.5232 H         1 UNK         0.0771 
    130 H130       36.5772   28.4358    5.8505 H         1 UNK         0.2980 
    131 H131       35.7978   27.8998    7.8246 H         1 UNK         0.0545 
    132 H132       36.8915   30.7891    7.4098 H         1 UNK         0.3459 
    133 H133       36.4826   31.5245    8.9393 H         1 UNK         0.3459 
    134 H134       33.0678   29.0238    7.0390 H         1 UNK         0.0616 
    135 H135       33.3831   27.9749    8.3923 H         1 UNK         0.0616 
    136 H136       32.6134   28.0791    4.5793 H         1 UNK         0.0634 
    137 H137       31.3947   27.7197    5.7846 H         1 UNK         0.0634 
@<TRIPOS>BOND
     1    1    2 1    
     2    1   72 1    
     3    1   73 1    
     4    1   74 1    
     5    2    3 2    
     6    2    4 am   BACKBONE|DICT|INTERRES
     7    4    5 1    
     8    4   75 1    
     9    5    6 1    
    10    5   35 1    
    11    5   76 1    
    12    6    7 1    
    13    6   77 1    
    14    6   78 1    
    15    7    8 1    
    16    8    9 1    
    17    8   79 1    
    18    8   80 1    
    19    9   10 ar   
    20    9   14 ar   
    21   10   11 ar   
    22   10   81 1    
    23   11   12 ar   
    24   11   71 1    
    25   12   13 ar   
    26   12   82 1    
    27   13   14 ar   
    28   13   15 1    
    29   14   83 1    
    30   15   16 1    
    31   15   84 1    
    32   15   85 1    
    33   16   17 1    
    34   17   18 1    
    35   17   86 1    
    36   17   87 1    
    37   18   19 1    
    38   18   37 1    
    39   18   88 1    
    40   19   20 am   BACKBONE|DICT|INTERRES
    41   19   89 1    
    42   20   21 2    
    43   20   22 1    
    44   22   23 1    
    45   22   24 1    
    46   22   90 1    
    47   23   91 1    
    48   23   92 1    
    49   23   93 1    
    50   24   25 am   BACKBONE|DICT|INTERRES
    51   24   94 1    
    52   25   26 2    
    53   25   27 1    
    54   27   28 1    
    55   27   29 1    
    56   27   95 1    
    57   28   96 1    
    58   28   97 1    
    59   28   98 1    
    60   29   30 am   BACKBONE|DICT|INTERRES
    61   29   99 1    
    62   30   31 2    
    63   30   32 1    
    64   32   33 1    
    65   32   34 1    
    66   32  100 1    
    67   33  101 1    
    68   33  102 1    
    69   33  103 1    
    70   34   35 am   BACKBONE|DICT|INTERRES
    71   34  104 1    
    72   35   36 2    
    73   37   38 2    
    74   37   39 am   BACKBONE|DICT|INTERRES
    75   39   40 1    
    76   39  105 1    
    77   40   41 1    
    78   40   42 1    
    79   40  106 1    
    80   41  107 1    
    81   41  108 1    
    82   41  109 1    
    83   42   43 2    
    84   42   44 am   BACKBONE|DICT|INTERRES
    85   44   45 1    
    86   44  110 1    
    87   45   46 1    
    88   45   47 1    
    89   45  111 1    
    90   46  112 1    
    91   46  113 1    
    92   46  114 1    
    93   47   48 2    
    94   47   49 am   BACKBONE|DICT|INTERRES
    95   49   50 1    
    96   49  115 1    
    97   50   51 1    
    98   50   52 1    
    99   50  116 1    
   100   51  117 1    
   101   51  118 1    
   102   51  119 1    
   103   52   53 2    
   104   52   54 am   BACKBONE|DICT|INTERRES
   105   54   55 1    
   106   54  120 1    
   107   55   56 1    
   108   55   57 1    
   109   55  121 1    
   110   56  122 1    
   111   56  123 1    
   112   56  124 1    
   113   57   58 2    
   114   57   59 am   BACKBONE|DICT|INTERRES
   115   59   60 1    
   116   59  125 1    
   117   60   61 1    
   118   60   62 1    
   119   60  126 1    
   120   61  127 1    
   121   61  128 1    
   122   61  129 1    
   123   62   63 2    
   124   62   64 am   BACKBONE|DICT|INTERRES
   125   64   65 1    
   126   64  130 1    
   127   65   66 1    
   128   65   69 1    
   129   65  131 1    
   130   66   67 am   BACKBONE|DICT|INTERRES
   131   66   68 2    
   132   67  132 1    
   133   67  133 1    
   134   69   70 1    
   135   69  134 1    
   136   69  135 1    
   137   70   71 1    
   138   71  136 1    
   139   71  137 1    
@<TRIPOS>SUBSTRUCTURE
     1 UNK         1 GROUP             0       ****    0 ROOT    
