@<TRIPOS>MOLECULE
3R136
137   139    1
SMALL
USER_CHARGES


@<TRIPOS>ATOM
      1 CA         34.1348   20.0837   -2.2109 C.3       0 UNK        -0.1979 
      2 C          33.6601   21.0129   -1.1032 C.2       0 UNK         0.4864 
      3 O          34.3639   21.9644   -0.7601 O.2       0 UNK        -0.5359 
      4 N          32.4773   20.7403   -0.5366 N.am      1 UNK        -0.4318 
      5 CA         31.8337   21.5639    0.4908 C.3       1 UNK         0.0824 
      6 C6         30.7328   20.7604    1.2312 C.3       12 UNK        -0.0944 
      7 S7         30.2893   21.4902    2.8446 S.3       12 UNK        -0.2672 
      8 C8         28.6584   22.2111    2.4511 C.3       12 UNK         0.0333 
      9 C9         28.2164   23.3608    3.3576 C.ar      12 UNK        -0.0807 
     10 C10        29.1271   24.1699    4.0515 C.ar      12 UNK        -0.0894 
     11 C11        28.6809   25.2333    4.8426 C.ar      12 UNK        -0.0804 
     12 C12        27.3118   25.4968    4.9355 C.ar      12 UNK        -0.0824 
     13 C13        26.3930   24.7156    4.2296 C.ar      12 UNK        -0.0762 
     14 C14        26.8513   23.6488    3.4509 C.ar      12 UNK        -0.0782 
     15 C15        24.9036   25.0162    4.2981 C.3       12 UNK         0.0230 
     16 S16        24.3347   25.9019    2.8117 S.3       12 UNK        -0.2608 
     17 C17        24.7497   27.6359    3.2050 C.3       12 UNK        -0.0989 
     18 CA         26.1321   28.0918    2.6661 C.3       5 UNK         0.0716 
     19 N          26.3397   27.8514    1.2285 N.am      5 UNK        -0.4135 
     20 C          25.6450   28.3289    0.1833 C.2       4 UNK         0.5031 
     21 O          24.7173   29.1322    0.2899 O.2       4 UNK        -0.5229 
     22 CA         26.0746   27.8781   -1.2273 C.3       4 UNK         0.0329 
     23 CB         26.9648   28.9504   -1.8768 C.3       4 UNK        -0.2001 
     24 N          26.7855   26.5985   -1.2336 N.am      4 UNK        -0.4303 
     25 C          26.2294   25.4156   -0.9401 C.2       3 UNK         0.5044 
     26 O          25.0158   25.2505   -0.8134 O.2       3 UNK        -0.5152 
     27 CA         27.1706   24.2114   -0.7334 C.3       3 UNK         0.0319 
     28 CB         26.9897   23.1812   -1.8602 C.3       3 UNK        -0.2001 
     29 N          28.6041   24.5096   -0.5989 N.am      3 UNK        -0.4354 
     30 C          29.1886   25.3009    0.3116 C.2       2 UNK         0.4964 
     31 O          28.5613   26.0225    1.0876 O.2       2 UNK        -0.5047 
     32 CA         30.7309   25.2681    0.3531 C.3       2 UNK         0.0288 
     33 CB         31.3094   26.2725    1.3644 C.3       2 UNK        -0.2113 
     34 N          31.2495   23.9387    0.6884 N.am      2 UNK        -0.4145 
     35 C          31.2848   22.8724   -0.1215 C.2       1 UNK         0.5006 
     36 O          30.8725   22.8873   -1.2857 O.2       1 UNK        -0.5103 
     37 C          26.4370   29.5371    3.1162 C.2       5 UNK         0.5055 
     38 O          27.0359   29.7260    4.1747 O.2       5 UNK        -0.5220 
     39 N          26.0374   30.5310    2.3128 N.am      6 UNK        -0.4450 
     40 CA         26.3065   31.9579    2.5099 C.3       6 UNK         0.0367 
     41 CB         25.3665   32.7696    1.6040 C.3       6 UNK        -0.1929 
     42 C          27.7737   32.3458    2.2466 C.2       6 UNK         0.5070 
     43 O          28.1860   33.4421    2.6288 O.2       6 UNK        -0.5237 
     44 N          28.5409   31.4538    1.6046 N.am      7 UNK        -0.4739 
     45 CA         29.9693   31.5883    1.3183 C.3       7 UNK         0.0276 
     46 CB         30.3460   30.5851    0.2118 C.3       7 UNK        -0.1927 
     47 C          30.8243   31.4102    2.5880 C.2       7 UNK         0.5013 
     48 O          31.5895   30.4498    2.6902 O.2       7 UNK        -0.5193 
     49 N          30.6882   32.3491    3.5341 N.am      8 UNK        -0.4253 
     50 CA         31.3565   32.3657    4.8410 C.3       8 UNK         0.0242 
     51 CB         30.9439   33.6316    5.6081 C.3       8 UNK        -0.2000 
     52 C          32.8898   32.2528    4.7734 C.2       8 UNK         0.4948 
     53 O          33.4865   31.6115    5.6376 O.2       8 UNK        -0.5275 
     54 N          33.4925   32.8334    3.7264 N.am      9 UNK        -0.4246 
     55 CA         34.9234   32.7388    3.4283 C.3       9 UNK         0.0261 
     56 CB         35.2767   33.7532    2.3283 C.3       9 UNK        -0.1959 
     57 C          35.3830   31.3248    3.0221 C.2       9 UNK         0.5033 
     58 O          36.5573   31.0062    3.2147 O.2       9 UNK        -0.5390 
     59 N          34.4719   30.5107    2.4699 N.am      10 UNK        -0.4215 
     60 CA         34.7205   29.1149    2.1095 C.3       10 UNK         0.0240 
     61 CB         33.9287   28.7587    0.8413 C.3       10 UNK        -0.1982 
     62 C          34.3716   28.1727    3.2726 C.2       10 UNK         0.4970 
     63 O          35.1052   27.2088    3.4949 O.2       10 UNK        -0.4916 
     64 N          33.2867   28.4708    4.0039 N.am      11 UNK        -0.4279 
     65 CA         32.9085   27.7781    5.2471 C.3       11 UNK         0.1003 
     66 C          33.9522   27.9386    6.3881 C.2       11 UNK         0.5709 
     67 N          34.5186   29.1209    6.5946 N.am      11 UNK        -0.7358 
     68 O          34.2520   26.9765    7.0909 O.2       11 UNK        -0.4999 
     69 C69        31.4985   28.1909    5.7433 C.3       12 UNK        -0.0954 
     70 S70        30.1670   27.5679    4.6681 S.3       12 UNK        -0.2268 
     71 C71        29.6792   26.0879    5.6076 C.3       12 UNK         0.0203 
     72 H72        35.0900   19.6344   -1.9406 H         1 UNK         0.0888 
     73 H73        33.4241   19.2797   -2.4015 H         1 UNK         0.0888 
     74 H74        34.2702   20.6426   -3.1364 H         1 UNK         0.0888 
     75 H75        31.9309   19.9651   -0.8837 H         1 UNK         0.3017 
     76 H76        32.6076   21.8294    1.2152 H         1 UNK         0.0873 
     77 H77        29.8457   20.6289    0.6079 H         1 UNK         0.0745 
     78 H78        31.0942   19.7524    1.4422 H         1 UNK         0.0745 
     79 H79        28.6644   22.5764    1.4260 H         1 UNK         0.0705 
     80 H80        27.9207   21.4078    2.4850 H         1 UNK         0.0705 
     81 H81        30.1889   23.9858    3.9768 H         1 UNK         0.1334 
     82 H82        26.9654   26.3234    5.5410 H         1 UNK         0.1417 
     83 H83        26.1372   23.0506    2.9010 H         1 UNK         0.1562 
     84 H84        24.6575   25.5848    5.1960 H         1 UNK         0.0748 
     85 H85        24.3518   24.0782    4.3765 H         1 UNK         0.0748 
     86 H86        24.6984   27.7736    4.2868 H         1 UNK         0.0940 
     87 H87        23.9583   28.2634    2.7910 H         1 UNK         0.0940 
     88 H88        26.8917   27.4747    3.1451 H         1 UNK         0.0703 
     89 H89        27.1017   27.2037    1.0359 H         1 UNK         0.3081 
     90 H90        25.1692   27.7696   -1.8281 H         1 UNK         0.0719 
     91 H91        27.8972   29.0891   -1.3282 H         1 UNK         0.0809 
     92 H92        27.2154   28.6885   -2.9049 H         1 UNK         0.0809 
     93 H93        26.4568   29.9156   -1.9057 H         1 UNK         0.0809 
     94 H94        27.7897   26.6331   -1.3278 H         1 UNK         0.2990 
     95 H95        26.8583   23.7452    0.2029 H         1 UNK         0.0690 
     96 H96        27.5556   22.2708   -1.6607 H         1 UNK         0.0788 
     97 H97        27.3180   23.5772   -2.8220 H         1 UNK         0.0788 
     98 H98        25.9431   22.8919   -1.9660 H         1 UNK         0.0788 
     99 H99        29.2292   23.9490   -1.1714 H         1 UNK         0.2993 
    100 H100       31.0899   25.5444   -0.6407 H         1 UNK         0.0949 
    101 H101       30.9645   27.2866    1.1605 H         1 UNK         0.0767 
    102 H102       31.0087   26.0260    2.3822 H         1 UNK         0.0767 
    103 H103       32.3981   26.2820    1.3359 H         1 UNK         0.0767 
    104 H104       31.5627   23.8184    1.6407 H         1 UNK         0.3013 
    105 H105       25.5085   30.2664    1.4832 H         1 UNK         0.3121 
    106 H106       26.0858   32.2078    3.5498 H         1 UNK         0.0774 
    107 H107       25.5357   32.5513    0.5487 H         1 UNK         0.0815 
    108 H108       25.5164   33.8411    1.7441 H         1 UNK         0.0815 
    109 H109       24.3205   32.5587    1.8270 H         1 UNK         0.0815 
    110 H110       28.1178   30.5713    1.3604 H         1 UNK         0.2987 
    111 H111       30.1565   32.5945    0.9368 H         1 UNK         0.0949 
    112 H112       30.1628   29.5551    0.5203 H         1 UNK         0.0806 
    113 H113       29.7789   30.7693   -0.7006 H         1 UNK         0.0806 
    114 H114       31.4028   30.6662   -0.0458 H         1 UNK         0.0806 
    115 H115       29.9814   33.0605    3.3703 H         1 UNK         0.3010 
    116 H116       30.9901   31.5014    5.3962 H         1 UNK         0.0829 
    117 H117       29.8645   33.6714    5.7563 H         1 UNK         0.0813 
    118 H118       31.4061   33.6579    6.5961 H         1 UNK         0.0813 
    119 H119       31.2442   34.5389    5.0825 H         1 UNK         0.0813 
    120 H120       32.9205   33.3455    3.0706 H         1 UNK         0.3038 
    121 H121       35.4714   33.0110    4.3331 H         1 UNK         0.0769 
    122 H122       34.7445   33.5446    1.3993 H         1 UNK         0.0811 
    123 H123       36.3442   33.7288    2.1040 H         1 UNK         0.0811 
    124 H124       35.0359   34.7715    2.6339 H         1 UNK         0.0811 
    125 H125       33.5068   30.8185    2.4096 H         1 UNK         0.3204 
    126 H126       35.7804   28.9821    1.8815 H         1 UNK         0.0748 
    127 H127       34.1485   27.7401    0.5200 H         1 UNK         0.0771 
    128 H128       32.8531   28.8297    0.9996 H         1 UNK         0.0771 
    129 H129       34.1881   29.4201    0.0146 H         1 UNK         0.0771 
    130 H130       32.6867   29.2352    3.7102 H         1 UNK         0.2980 
    131 H131       32.8753   26.7116    5.0148 H         1 UNK         0.0545 
    132 H132       35.1978   29.2168    7.3317 H         1 UNK         0.3459 
    133 H133       34.2103   29.9455    6.0855 H         1 UNK         0.3459 
    134 H134       31.3167   27.8289    6.7573 H         1 UNK         0.0616 
    135 H135       31.4200   29.2764    5.7989 H         1 UNK         0.0616 
    136 H136       30.5688   25.5006    5.8408 H         1 UNK         0.0634 
    137 H137       29.2518   26.3937    6.5637 H         1 UNK         0.0634 
@<TRIPOS>BOND
     1    1    2 1    
     2    1   72 1    
     3    1   73 1    
     4    1   74 1    
     5    2    3 2    
     6    2    4 am   BACKBONE|DICT|INTERRES
     7    4    5 1    
     8    4   75 1    
     9    5    6 1    
    10    5   35 1    
    11    5   76 1    
    12    6    7 1    
    13    6   77 1    
    14    6   78 1    
    15    7    8 1    
    16    8    9 1    
    17    8   79 1    
    18    8   80 1    
    19    9   10 ar   
    20    9   14 ar   
    21   10   11 ar   
    22   10   81 1    
    23   11   12 ar   
    24   11   71 1    
    25   12   13 ar   
    26   12   82 1    
    27   13   14 ar   
    28   13   15 1    
    29   14   83 1    
    30   15   16 1    
    31   15   84 1    
    32   15   85 1    
    33   16   17 1    
    34   17   18 1    
    35   17   86 1    
    36   17   87 1    
    37   18   19 1    
    38   18   37 1    
    39   18   88 1    
    40   19   20 am   BACKBONE|DICT|INTERRES
    41   19   89 1    
    42   20   21 2    
    43   20   22 1    
    44   22   23 1    
    45   22   24 1    
    46   22   90 1    
    47   23   91 1    
    48   23   92 1    
    49   23   93 1    
    50   24   25 am   BACKBONE|DICT|INTERRES
    51   24   94 1    
    52   25   26 2    
    53   25   27 1    
    54   27   28 1    
    55   27   29 1    
    56   27   95 1    
    57   28   96 1    
    58   28   97 1    
    59   28   98 1    
    60   29   30 am   BACKBONE|DICT|INTERRES
    61   29   99 1    
    62   30   31 2    
    63   30   32 1    
    64   32   33 1    
    65   32   34 1    
    66   32  100 1    
    67   33  101 1    
    68   33  102 1    
    69   33  103 1    
    70   34   35 am   BACKBONE|DICT|INTERRES
    71   34  104 1    
    72   35   36 2    
    73   37   38 2    
    74   37   39 am   BACKBONE|DICT|INTERRES
    75   39   40 1    
    76   39  105 1    
    77   40   41 1    
    78   40   42 1    
    79   40  106 1    
    80   41  107 1    
    81   41  108 1    
    82   41  109 1    
    83   42   43 2    
    84   42   44 am   BACKBONE|DICT|INTERRES
    85   44   45 1    
    86   44  110 1    
    87   45   46 1    
    88   45   47 1    
    89   45  111 1    
    90   46  112 1    
    91   46  113 1    
    92   46  114 1    
    93   47   48 2    
    94   47   49 am   BACKBONE|DICT|INTERRES
    95   49   50 1    
    96   49  115 1    
    97   50   51 1    
    98   50   52 1    
    99   50  116 1    
   100   51  117 1    
   101   51  118 1    
   102   51  119 1    
   103   52   53 2    
   104   52   54 am   BACKBONE|DICT|INTERRES
   105   54   55 1    
   106   54  120 1    
   107   55   56 1    
   108   55   57 1    
   109   55  121 1    
   110   56  122 1    
   111   56  123 1    
   112   56  124 1    
   113   57   58 2    
   114   57   59 am   BACKBONE|DICT|INTERRES
   115   59   60 1    
   116   59  125 1    
   117   60   61 1    
   118   60   62 1    
   119   60  126 1    
   120   61  127 1    
   121   61  128 1    
   122   61  129 1    
   123   62   63 2    
   124   62   64 am   BACKBONE|DICT|INTERRES
   125   64   65 1    
   126   64  130 1    
   127   65   66 1    
   128   65   69 1    
   129   65  131 1    
   130   66   67 am   BACKBONE|DICT|INTERRES
   131   66   68 2    
   132   67  132 1    
   133   67  133 1    
   134   69   70 1    
   135   69  134 1    
   136   69  135 1    
   137   70   71 1    
   138   71  136 1    
   139   71  137 1    
@<TRIPOS>SUBSTRUCTURE
     1 UNK         1 GROUP             0       ****    0 ROOT    
