@<TRIPOS>MOLECULE
3R136
137   139    1
SMALL
USER_CHARGES


@<TRIPOS>ATOM
      1 CA         29.1847   18.8249   -1.8447 C.3       0 UNK        -0.1979 
      2 C          29.3948   20.3114   -1.5989 C.2       0 UNK         0.4864 
      3 O          29.1111   21.1249   -2.4790 O.2       0 UNK        -0.5359 
      4 N          29.8765   20.6774   -0.4031 N.am      1 UNK        -0.4318 
      5 CA         30.1597   22.0604    0.0046 C.3       1 UNK         0.0824 
      6 C6         31.2132   22.1206    1.1403 C.3       12 UNK        -0.0944 
      7 S7         30.6765   21.3279    2.6971 S.3       12 UNK        -0.2672 
      8 C8         31.5024   22.3683    3.9465 C.3       12 UNK         0.0333 
      9 C9         30.9328   23.7805    4.0138 C.ar      12 UNK        -0.0807 
     10 C10        31.7185   24.8796    3.6496 C.ar      12 UNK        -0.0894 
     11 C11        31.2072   26.1782    3.7399 C.ar      12 UNK        -0.0804 
     12 C12        29.8999   26.3739    4.1909 C.ar      12 UNK        -0.0824 
     13 C13        29.1018   25.2850    4.5503 C.ar      12 UNK        -0.0762 
     14 C14        29.6263   23.9912    4.4654 C.ar      12 UNK        -0.0782 
     15 C15        27.6731   25.4964    5.0259 C.3       12 UNK         0.0230 
     16 S16        26.5001   25.1871    3.6717 S.3       12 UNK        -0.2608 
     17 C17        25.7937   26.8365    3.3424 C.3       12 UNK        -0.0989 
     18 CA         26.7947   27.8813    2.7881 C.3       5 UNK         0.0716 
     19 N          27.5577   27.3972    1.6291 N.am      5 UNK        -0.4135 
     20 C          28.6066   28.0361    1.0863 C.2       4 UNK         0.5031 
     21 O          29.0719   29.0787    1.5485 O.2       4 UNK        -0.5229 
     22 CA         29.2130   27.4750   -0.2100 C.3       4 UNK         0.0329 
     23 CB         30.6136   26.8953    0.0412 C.3       4 UNK        -0.2001 
     24 N          28.3686   26.4641   -0.8485 N.am      4 UNK        -0.4303 
     25 C          27.2902   26.7384   -1.5975 C.2       3 UNK         0.5044 
     26 O          26.8854   27.8822   -1.8077 O.2       3 UNK        -0.5152 
     27 CA         26.5202   25.5466   -2.1994 C.3       3 UNK         0.0319 
     28 CB         27.0187   25.2512   -3.6227 C.3       3 UNK        -0.2001 
     29 N          26.6120   24.3258   -1.3944 N.am      3 UNK        -0.4354 
     30 C          26.0757   24.1827   -0.1741 C.2       2 UNK         0.4964 
     31 O          25.3762   25.0417    0.3621 O.2       2 UNK        -0.5047 
     32 CA         26.4001   22.8853    0.5928 C.3       2 UNK         0.0288 
     33 CB         25.2951   21.8411    0.3673 C.3       2 UNK        -0.2113 
     34 N          27.7027   22.2813    0.2820 N.am      2 UNK        -0.4145 
     35 C          28.8975   22.8935    0.3293 C.2       1 UNK         0.5006 
     36 O          29.0303   24.0870    0.5939 O.2       1 UNK        -0.5103 
     37 C          26.0687   29.2159    2.5101 C.2       5 UNK         0.5055 
     38 O          25.7910   29.9549    3.4547 O.2       5 UNK        -0.5220 
     39 N          25.7931   29.5142    1.2307 N.am      6 UNK        -0.4450 
     40 CA         25.2638   30.8005    0.7748 C.3       6 UNK         0.0367 
     41 CB         24.7550   30.6532   -0.6680 C.3       6 UNK        -0.1929 
     42 C          26.2954   31.9413    0.8678 C.2       6 UNK         0.5070 
     43 O          25.8949   33.0966    1.0122 O.2       6 UNK        -0.5237 
     44 N          27.5913   31.6078    0.7808 N.am      7 UNK        -0.4739 
     45 CA         28.6998   32.5486    0.9388 C.3       7 UNK         0.0276 
     46 CB         29.8754   32.1285    0.0387 C.3       7 UNK        -0.1927 
     47 C          29.1316   32.6345    2.4089 C.2       7 UNK         0.5013 
     48 O          29.2053   33.7400    2.9459 O.2       7 UNK        -0.5193 
     49 N          29.3966   31.4673    3.0214 N.am      8 UNK        -0.4253 
     50 CA         29.8386   31.2662    4.4095 C.3       8 UNK         0.0242 
     51 CB         28.6710   31.5245    5.3842 C.3       8 UNK        -0.2000 
     52 C          31.1085   32.0724    4.7597 C.2       8 UNK         0.4948 
     53 O          31.1407   32.7713    5.7755 O.2       8 UNK        -0.5275 
     54 N          32.1111   31.9887    3.8750 N.am      9 UNK        -0.4246 
     55 CA         33.3810   32.7116    3.9548 C.3       9 UNK         0.0261 
     56 CB         33.8257   33.0735    2.5213 C.3       9 UNK        -0.1959 
     57 C          34.4287   31.9093    4.7548 C.2       9 UNK         0.5033 
     58 O          34.1144   31.3802    5.8235 O.2       9 UNK        -0.5390 
     59 N          35.6645   31.8294    4.2426 N.am      10 UNK        -0.4215 
     60 CA         36.7835   31.0834    4.8251 C.3       10 UNK         0.0240 
     61 CB         38.1043   31.6561    4.2763 C.3       10 UNK        -0.1982 
     62 C          36.6417   29.5700    4.5697 C.2       10 UNK         0.4970 
     63 O          37.4206   28.9937    3.8081 O.2       10 UNK        -0.4916 
     64 N          35.6228   28.9659    5.1895 N.am      11 UNK        -0.4279 
     65 CA         35.2574   27.5468    5.0514 C.3       11 UNK         0.1003 
     66 C          36.2581   26.5411    5.6922 C.2       11 UNK         0.5709 
     67 N          37.1839   26.9704    6.5420 N.am      11 UNK        -0.7358 
     68 O          36.1955   25.3478    5.4060 O.2       11 UNK        -0.4999 
     69 C69        33.8142   27.2767    5.5525 C.3       12 UNK        -0.0954 
     70 S70        32.5702   28.3618    4.7753 S.3       12 UNK        -0.2268 
     71 C71        32.0545   27.3761    3.3388 C.3       12 UNK         0.0203 
     72 H72        29.7766   18.4996   -2.6997 H         1 UNK         0.0888 
     73 H73        29.4755   18.2240   -0.9832 H         1 UNK         0.0888 
     74 H74        28.1356   18.6243   -2.0602 H         1 UNK         0.0888 
     75 H75        30.0806   19.9735    0.2934 H         1 UNK         0.3017 
     76 H76        30.6107   22.5581   -0.8568 H         1 UNK         0.0873 
     77 H77        32.1330   21.6325    0.8145 H         1 UNK         0.0745 
     78 H78        31.4900   23.1586    1.3318 H         1 UNK         0.0745 
     79 H79        31.3903   21.8962    4.9234 H         1 UNK         0.0705 
     80 H80        32.5738   22.3889    3.7402 H         1 UNK         0.0705 
     81 H81        32.7307   24.7254    3.3016 H         1 UNK         0.1334 
     82 H82        29.5129   27.3797    4.2615 H         1 UNK         0.1417 
     83 H83        29.0126   23.1441    4.7406 H         1 UNK         0.1562 
     84 H84        27.5409   26.5008    5.4304 H         1 UNK         0.0748 
     85 H85        27.4546   24.8096    5.8449 H         1 UNK         0.0748 
     86 H86        25.3374   27.1992    4.2659 H         1 UNK         0.0940 
     87 H87        24.9705   26.6956    2.6387 H         1 UNK         0.0940 
     88 H88        27.5158   28.1005    3.5752 H         1 UNK         0.0703 
     89 H89        27.2444   26.5279    1.2186 H         1 UNK         0.3081 
     90 H90        29.3228   28.3130   -0.9019 H         1 UNK         0.0719 
     91 H91        31.3066   27.6807    0.3434 H         1 UNK         0.0809 
     92 H92        30.6071   26.1428    0.8301 H         1 UNK         0.0809 
     93 H93        31.0234   26.4357   -0.8582 H         1 UNK         0.0809 
     94 H94        28.5932   25.4974   -0.6283 H         1 UNK         0.2990 
     95 H95        25.4679   25.8329   -2.2586 H         1 UNK         0.0690 
     96 H96        26.9416   26.1372   -4.2547 H         1 UNK         0.0788 
     97 H97        26.4282   24.4660   -4.0954 H         1 UNK         0.0788 
     98 H98        28.0631   24.9364   -3.6281 H         1 UNK         0.0788 
     99 H99        27.1700   23.5700   -1.7663 H         1 UNK         0.2993 
    100 H100       26.4168   23.1369    1.6536 H         1 UNK         0.0949 
    101 H101       25.4435   20.9628    0.9961 H         1 UNK         0.0767 
    102 H102       24.3145   22.2508    0.6146 H         1 UNK         0.0767 
    103 H103       25.2585   21.5103   -0.6715 H         1 UNK         0.0767 
    104 H104       27.6967   21.3008    0.0439 H         1 UNK         0.3013 
    105 H105       26.0369   28.8450    0.5131 H         1 UNK         0.3121 
    106 H106       24.4172   31.0676    1.4112 H         1 UNK         0.0774 
    107 H107       24.3262   31.5897   -1.0276 H         1 UNK         0.0815 
    108 H108       25.5578   30.3780   -1.3536 H         1 UNK         0.0815 
    109 H109       23.9770   29.8931   -0.7400 H         1 UNK         0.0815 
    110 H110       27.8390   30.6286    0.7217 H         1 UNK         0.2987 
    111 H111       28.3819   33.5456    0.6243 H         1 UNK         0.0949 
    112 H112       30.2461   31.1319    0.2792 H         1 UNK         0.0806 
    113 H113       29.5860   32.1305   -1.0123 H         1 UNK         0.0806 
    114 H114       30.7119   32.8207    0.1446 H         1 UNK         0.0806 
    115 H115       29.3033   30.6152    2.4692 H         1 UNK         0.3010 
    116 H116       30.1102   30.2131    4.4956 H         1 UNK         0.0829 
    117 H117       28.3519   32.5670    5.3642 H         1 UNK         0.0813 
    118 H118       27.8077   30.9056    5.1400 H         1 UNK         0.0813 
    119 H119       28.9581   31.2897    6.4098 H         1 UNK         0.0813 
    120 H120       31.9996   31.3623    3.0916 H         1 UNK         0.3038 
    121 H121       33.2247   33.6470    4.4964 H         1 UNK         0.0769 
    122 H122       34.0543   32.1878    1.9265 H         1 UNK         0.0811 
    123 H123       34.7065   33.7169    2.5245 H         1 UNK         0.0811 
    124 H124       33.0425   33.6244    1.9992 H         1 UNK         0.0811 
    125 H125       35.8368   32.2686    3.3498 H         1 UNK         0.3204 
    126 H126       36.7826   31.2340    5.9070 H         1 UNK         0.0748 
    127 H127       38.9626   31.1345    4.7024 H         1 UNK         0.0771 
    128 H128       38.1698   31.5604    3.1917 H         1 UNK         0.0771 
    129 H129       38.2129   32.7116    4.5268 H         1 UNK         0.0771 
    130 H130       34.9905   29.5429    5.7346 H         1 UNK         0.2980 
    131 H131       35.2708   27.3265    3.9823 H         1 UNK         0.0545 
    132 H132       37.8281   26.3091    6.9462 H         1 UNK         0.3459 
    133 H133       37.2417   27.9461    6.7844 H         1 UNK         0.3459 
    134 H134       33.7576   27.4329    6.6311 H         1 UNK         0.0616 
    135 H135       33.5340   26.2357    5.3862 H         1 UNK         0.0616 
    136 H136       31.4715   28.0206    2.6807 H         1 UNK         0.0634 
    137 H137       32.9333   27.0668    2.7710 H         1 UNK         0.0634 
@<TRIPOS>BOND
     1    1    2 1    
     2    1   72 1    
     3    1   73 1    
     4    1   74 1    
     5    2    3 2    
     6    2    4 am   BACKBONE|DICT|INTERRES
     7    4    5 1    
     8    4   75 1    
     9    5    6 1    
    10    5   35 1    
    11    5   76 1    
    12    6    7 1    
    13    6   77 1    
    14    6   78 1    
    15    7    8 1    
    16    8    9 1    
    17    8   79 1    
    18    8   80 1    
    19    9   10 ar   
    20    9   14 ar   
    21   10   11 ar   
    22   10   81 1    
    23   11   12 ar   
    24   11   71 1    
    25   12   13 ar   
    26   12   82 1    
    27   13   14 ar   
    28   13   15 1    
    29   14   83 1    
    30   15   16 1    
    31   15   84 1    
    32   15   85 1    
    33   16   17 1    
    34   17   18 1    
    35   17   86 1    
    36   17   87 1    
    37   18   19 1    
    38   18   37 1    
    39   18   88 1    
    40   19   20 am   BACKBONE|DICT|INTERRES
    41   19   89 1    
    42   20   21 2    
    43   20   22 1    
    44   22   23 1    
    45   22   24 1    
    46   22   90 1    
    47   23   91 1    
    48   23   92 1    
    49   23   93 1    
    50   24   25 am   BACKBONE|DICT|INTERRES
    51   24   94 1    
    52   25   26 2    
    53   25   27 1    
    54   27   28 1    
    55   27   29 1    
    56   27   95 1    
    57   28   96 1    
    58   28   97 1    
    59   28   98 1    
    60   29   30 am   BACKBONE|DICT|INTERRES
    61   29   99 1    
    62   30   31 2    
    63   30   32 1    
    64   32   33 1    
    65   32   34 1    
    66   32  100 1    
    67   33  101 1    
    68   33  102 1    
    69   33  103 1    
    70   34   35 am   BACKBONE|DICT|INTERRES
    71   34  104 1    
    72   35   36 2    
    73   37   38 2    
    74   37   39 am   BACKBONE|DICT|INTERRES
    75   39   40 1    
    76   39  105 1    
    77   40   41 1    
    78   40   42 1    
    79   40  106 1    
    80   41  107 1    
    81   41  108 1    
    82   41  109 1    
    83   42   43 2    
    84   42   44 am   BACKBONE|DICT|INTERRES
    85   44   45 1    
    86   44  110 1    
    87   45   46 1    
    88   45   47 1    
    89   45  111 1    
    90   46  112 1    
    91   46  113 1    
    92   46  114 1    
    93   47   48 2    
    94   47   49 am   BACKBONE|DICT|INTERRES
    95   49   50 1    
    96   49  115 1    
    97   50   51 1    
    98   50   52 1    
    99   50  116 1    
   100   51  117 1    
   101   51  118 1    
   102   51  119 1    
   103   52   53 2    
   104   52   54 am   BACKBONE|DICT|INTERRES
   105   54   55 1    
   106   54  120 1    
   107   55   56 1    
   108   55   57 1    
   109   55  121 1    
   110   56  122 1    
   111   56  123 1    
   112   56  124 1    
   113   57   58 2    
   114   57   59 am   BACKBONE|DICT|INTERRES
   115   59   60 1    
   116   59  125 1    
   117   60   61 1    
   118   60   62 1    
   119   60  126 1    
   120   61  127 1    
   121   61  128 1    
   122   61  129 1    
   123   62   63 2    
   124   62   64 am   BACKBONE|DICT|INTERRES
   125   64   65 1    
   126   64  130 1    
   127   65   66 1    
   128   65   69 1    
   129   65  131 1    
   130   66   67 am   BACKBONE|DICT|INTERRES
   131   66   68 2    
   132   67  132 1    
   133   67  133 1    
   134   69   70 1    
   135   69  134 1    
   136   69  135 1    
   137   70   71 1    
   138   71  136 1    
   139   71  137 1    
@<TRIPOS>SUBSTRUCTURE
     1 UNK         1 GROUP             0       ****    0 ROOT    
