@<TRIPOS>MOLECULE
3R136
137   139    1
SMALL
USER_CHARGES


@<TRIPOS>ATOM
      1 CA         32.6028   22.6266   -3.9756 C.3       0 UNK        -0.1979 
      2 C          31.9224   23.8255   -3.3317 C.2       0 UNK         0.4864 
      3 O          31.8769   24.8986   -3.9343 O.2       0 UNK        -0.5359 
      4 N          31.3922   23.6502   -2.1133 N.am      1 UNK        -0.4318 
      5 CA         30.7168   24.6964   -1.3319 C.3       1 UNK         0.0824 
      6 C6         30.6055   24.3189    0.1660 C.3       12 UNK        -0.0944 
      7 S7         32.2508   24.1341    0.9307 S.3       12 UNK        -0.2672 
      8 C8         31.9256   22.8848    2.2112 C.3       12 UNK         0.0333 
      9 C9         31.1564   23.4657    3.3889 C.ar      12 UNK        -0.0807 
     10 C10        31.8256   24.2260    4.3527 C.ar      12 UNK        -0.0894 
     11 C11        31.1391   24.7309    5.4607 C.ar      12 UNK        -0.0804 
     12 C12        29.7745   24.4710    5.6034 C.ar      12 UNK        -0.0824 
     13 C13        29.0933   23.7168    4.6435 C.ar      12 UNK        -0.0762 
     14 C14        29.7877   23.2193    3.5359 C.ar      12 UNK        -0.0782 
     15 C15        27.6130   23.4154    4.8166 C.3       12 UNK         0.0230 
     16 S16        26.5739   24.5613    3.8617 S.3       12 UNK        -0.2608 
     17 C17        26.7872   26.1291    4.7775 C.3       12 UNK        -0.0989 
     18 CA         27.6255   27.1680    3.9897 C.3       5 UNK         0.0716 
     19 N          27.0293   27.4293    2.6809 N.am      5 UNK        -0.4135 
     20 C          27.4647   28.2359    1.7062 C.2       4 UNK         0.5031 
     21 O          28.4642   28.9607    1.7888 O.2       4 UNK        -0.5229 
     22 CA         26.6262   28.2008    0.4131 C.3       4 UNK         0.0329 
     23 CB         27.2619   29.0017   -0.7332 C.3       4 UNK        -0.2001 
     24 N          26.4072   26.8206   -0.0352 N.am      4 UNK        -0.4303 
     25 C          25.4166   26.0201    0.3885 C.2       3 UNK         0.5044 
     26 O          24.5722   26.3914    1.2051 O.2       3 UNK        -0.5152 
     27 CA         25.3836   24.5564   -0.1047 C.3       3 UNK         0.0319 
     28 CB         23.9490   24.0761   -0.4107 C.3       3 UNK        -0.2001 
     29 N          26.2930   24.2609   -1.2194 N.am      3 UNK        -0.4354 
     30 C          26.2490   24.7484   -2.4691 C.2       2 UNK         0.4964 
     31 O          25.3562   25.4868   -2.8878 O.2       2 UNK        -0.5047 
     32 CA         27.4276   24.3646   -3.3914 C.3       2 UNK         0.0288 
     33 CB         27.6040   25.3555   -4.5622 C.3       2 UNK        -0.2113 
     34 N          28.7104   24.1865   -2.6888 N.am      2 UNK        -0.4145 
     35 C          29.3321   25.0776   -1.8961 C.2       1 UNK         0.5006 
     36 O          28.8446   26.1631   -1.5813 O.2       1 UNK        -0.5103 
     37 C          27.7753   28.4754    4.7874 C.2       5 UNK         0.5055 
     38 O          26.7648   29.0488    5.1987 O.2       5 UNK        -0.5220 
     39 N          29.0237   28.9400    4.9379 N.am      6 UNK        -0.4450 
     40 CA         29.4420   30.2097    5.5493 C.3       6 UNK         0.0367 
     41 CB         29.0815   30.2438    7.0494 C.3       6 UNK        -0.1929 
     42 C          28.9615   31.4760    4.8030 C.2       6 UNK         0.5070 
     43 O          29.1329   32.5781    5.3265 O.2       6 UNK        -0.5237 
     44 N          28.3802   31.3156    3.6058 N.am      7 UNK        -0.4739 
     45 CA         27.8951   32.3998    2.7509 C.3       7 UNK         0.0276 
     46 CB         26.5119   32.0360    2.1856 C.3       7 UNK        -0.1927 
     47 C          28.8960   32.6827    1.6244 C.2       7 UNK         0.5013 
     48 O          29.2351   33.8457    1.4021 O.2       7 UNK        -0.5193 
     49 N          29.3683   31.6192    0.9596 N.am      8 UNK        -0.4253 
     50 CA         30.4536   31.6690   -0.0253 C.3       8 UNK         0.0242 
     51 CB         29.9225   31.3447   -1.4308 C.3       8 UNK        -0.2000 
     52 C          31.6005   30.7237    0.3598 C.2       8 UNK         0.4948 
     53 O          32.7403   30.9936   -0.0225 O.2       8 UNK        -0.5275 
     54 N          31.3099   29.6576    1.1232 N.am      9 UNK        -0.4246 
     55 CA         32.3216   28.8202    1.7688 C.3       9 UNK         0.0261 
     56 CB         31.6486   27.5557    2.3232 C.3       9 UNK        -0.1959 
     57 C          33.0201   29.6078    2.8909 C.2       9 UNK         0.5033 
     58 O          32.3437   30.3239    3.6326 O.2       9 UNK        -0.5390 
     59 N          34.3498   29.4753    2.9876 N.am      10 UNK        -0.4215 
     60 CA         35.1769   30.1994    3.9595 C.3       10 UNK         0.0240 
     61 CB         36.6625   30.0564    3.5878 C.3       10 UNK        -0.1982 
     62 C          34.9297   29.7536    5.4100 C.2       10 UNK         0.4970 
     63 O          34.8044   30.6068    6.2899 O.2       10 UNK        -0.4916 
     64 N          34.8509   28.4314    5.6127 N.am      11 UNK        -0.4279 
     65 CA         34.5827   27.7597    6.8950 C.3       11 UNK         0.1003 
     66 C          35.6308   28.0911    8.0036 C.2       11 UNK         0.5709 
     67 N          35.2765   28.0088    9.2799 N.am      11 UNK        -0.7358 
     68 O          36.7953   28.3640    7.7157 O.2       11 UNK        -0.4999 
     69 C69        33.0954   27.9076    7.3388 C.3       12 UNK        -0.0954 
     70 S70        31.9329   27.2967    6.0733 S.3       12 UNK        -0.2268 
     71 C71        31.8779   25.5363    6.5147 C.3       12 UNK         0.0203 
     72 H72        33.6475   22.8560   -4.1838 H         1 UNK         0.0888 
     73 H73        32.5710   21.7459   -3.3343 H         1 UNK         0.0888 
     74 H74        32.1139   22.3785   -4.9173 H         1 UNK         0.0888 
     75 H75        31.4883   22.7554   -1.6542 H         1 UNK         0.3017 
     76 H76        31.3255   25.6012   -1.4004 H         1 UNK         0.0873 
     77 H77        30.0611   25.0816    0.7264 H         1 UNK         0.0745 
     78 H78        30.0392   23.3934    0.2840 H         1 UNK         0.0745 
     79 H79        32.8803   22.4925    2.5649 H         1 UNK         0.0705 
     80 H80        31.3948   22.0368    1.7758 H         1 UNK         0.0705 
     81 H81        32.8837   24.4205    4.2418 H         1 UNK         0.1334 
     82 H82        29.2466   24.8508    6.4672 H         1 UNK         0.1417 
     83 H83        29.2629   22.6306    2.7959 H         1 UNK         0.1562 
     84 H84        27.3289   23.4518    5.8695 H         1 UNK         0.0748 
     85 H85        27.4070   22.3967    4.4845 H         1 UNK         0.0748 
     86 H86        27.2347   25.9309    5.7522 H         1 UNK         0.0940 
     87 H87        25.7903   26.5229    4.9870 H         1 UNK         0.0940 
     88 H88        28.6171   26.7447    3.8154 H         1 UNK         0.0703 
     89 H89        26.1788   26.9121    2.4921 H         1 UNK         0.3081 
     90 H90        25.6639   28.6640    0.6406 H         1 UNK         0.0719 
     91 H91        28.2560   28.6256   -0.9715 H         1 UNK         0.0809 
     92 H92        26.6585   28.9449   -1.6392 H         1 UNK         0.0809 
     93 H93        27.3559   30.0560   -0.4746 H         1 UNK         0.0809 
     94 H94        27.1103   26.4471   -0.6666 H         1 UNK         0.2990 
     95 H95        25.7495   23.9623    0.7341 H         1 UNK         0.0690 
     96 H96        23.9389   23.0357   -0.7353 H         1 UNK         0.0788 
     97 H97        23.4761   24.6761   -1.1886 H         1 UNK         0.0788 
     98 H98        23.3169   24.1422    0.4757 H         1 UNK         0.0788 
     99 H99        27.0745   23.6639   -0.9880 H         1 UNK         0.2993 
    100 H100       27.1696   23.3932   -3.8163 H         1 UNK         0.0949 
    101 H101       27.8082   26.3661   -4.2060 H         1 UNK         0.0767 
    102 H102       28.4266   25.0579   -5.2128 H         1 UNK         0.0767 
    103 H103       26.7057   25.4017   -5.1792 H         1 UNK         0.0767 
    104 H104       29.1880   23.3137   -2.8657 H         1 UNK         0.3013 
    105 H105       29.7829   28.3942    4.5550 H         1 UNK         0.3121 
    106 H106       30.5301   30.2241    5.4846 H         1 UNK         0.0774 
    107 H107       29.5259   31.1114    7.5385 H         1 UNK         0.0815 
    108 H108       28.0044   30.2999    7.2082 H         1 UNK         0.0815 
    109 H109       29.4540   29.3588    7.5654 H         1 UNK         0.0815 
    110 H110       28.3130   30.3759    3.2326 H         1 UNK         0.2987 
    111 H111       27.7839   33.3164    3.3348 H         1 UNK         0.0949 
    112 H112       26.1257   32.8392    1.5566 H         1 UNK         0.0806 
    113 H113       26.5390   31.1323    1.5786 H         1 UNK         0.0806 
    114 H114       25.7898   31.8764    2.9866 H         1 UNK         0.0806 
    115 H115       29.0193   30.7005    1.2131 H         1 UNK         0.3010 
    116 H116       30.8791   32.6745   -0.0550 H         1 UNK         0.0829 
    117 H117       29.0427   31.9400   -1.6752 H         1 UNK         0.0813 
    118 H118       30.6803   31.5608   -2.1848 H         1 UNK         0.0813 
    119 H119       29.6638   30.2929   -1.5360 H         1 UNK         0.0813 
    120 H120       30.3499   29.4759    1.3906 H         1 UNK         0.3038 
    121 H121       33.0570   28.5241    1.0177 H         1 UNK         0.0769 
    122 H122       30.9157   27.7916    3.0928 H         1 UNK         0.0811 
    123 H123       32.3816   26.8807    2.7667 H         1 UNK         0.0811 
    124 H124       31.1357   27.0070    1.5348 H         1 UNK         0.0811 
    125 H125       34.8313   28.8751    2.3334 H         1 UNK         0.3204 
    126 H126       34.9156   31.2581    3.8940 H         1 UNK         0.0748 
    127 H127       37.2938   30.5989    4.2932 H         1 UNK         0.0771 
    128 H128       36.9867   29.0151    3.5959 H         1 UNK         0.0771 
    129 H129       36.8642   30.4637    2.5967 H         1 UNK         0.0771 
    130 H130       34.9855   27.8199    4.8225 H         1 UNK         0.2980 
    131 H131       34.7526   26.7022    6.6931 H         1 UNK         0.0545 
    132 H132       34.3351   27.7684    9.5458 H         1 UNK         0.3459 
    133 H133       35.9648   28.2010    9.9908 H         1 UNK         0.3459 
    134 H134       32.8603   28.9533    7.5433 H         1 UNK         0.0616 
    135 H135       32.8992   27.3627    8.2630 H         1 UNK         0.0616 
    136 H136       31.3981   25.4229    7.4880 H         1 UNK         0.0634 
    137 H137       32.8928   25.1519    6.6236 H         1 UNK         0.0634 
@<TRIPOS>BOND
     1    1    2 1    
     2    1   72 1    
     3    1   73 1    
     4    1   74 1    
     5    2    3 2    
     6    2    4 am   BACKBONE|DICT|INTERRES
     7    4    5 1    
     8    4   75 1    
     9    5    6 1    
    10    5   35 1    
    11    5   76 1    
    12    6    7 1    
    13    6   77 1    
    14    6   78 1    
    15    7    8 1    
    16    8    9 1    
    17    8   79 1    
    18    8   80 1    
    19    9   10 ar   
    20    9   14 ar   
    21   10   11 ar   
    22   10   81 1    
    23   11   12 ar   
    24   11   71 1    
    25   12   13 ar   
    26   12   82 1    
    27   13   14 ar   
    28   13   15 1    
    29   14   83 1    
    30   15   16 1    
    31   15   84 1    
    32   15   85 1    
    33   16   17 1    
    34   17   18 1    
    35   17   86 1    
    36   17   87 1    
    37   18   19 1    
    38   18   37 1    
    39   18   88 1    
    40   19   20 am   BACKBONE|DICT|INTERRES
    41   19   89 1    
    42   20   21 2    
    43   20   22 1    
    44   22   23 1    
    45   22   24 1    
    46   22   90 1    
    47   23   91 1    
    48   23   92 1    
    49   23   93 1    
    50   24   25 am   BACKBONE|DICT|INTERRES
    51   24   94 1    
    52   25   26 2    
    53   25   27 1    
    54   27   28 1    
    55   27   29 1    
    56   27   95 1    
    57   28   96 1    
    58   28   97 1    
    59   28   98 1    
    60   29   30 am   BACKBONE|DICT|INTERRES
    61   29   99 1    
    62   30   31 2    
    63   30   32 1    
    64   32   33 1    
    65   32   34 1    
    66   32  100 1    
    67   33  101 1    
    68   33  102 1    
    69   33  103 1    
    70   34   35 am   BACKBONE|DICT|INTERRES
    71   34  104 1    
    72   35   36 2    
    73   37   38 2    
    74   37   39 am   BACKBONE|DICT|INTERRES
    75   39   40 1    
    76   39  105 1    
    77   40   41 1    
    78   40   42 1    
    79   40  106 1    
    80   41  107 1    
    81   41  108 1    
    82   41  109 1    
    83   42   43 2    
    84   42   44 am   BACKBONE|DICT|INTERRES
    85   44   45 1    
    86   44  110 1    
    87   45   46 1    
    88   45   47 1    
    89   45  111 1    
    90   46  112 1    
    91   46  113 1    
    92   46  114 1    
    93   47   48 2    
    94   47   49 am   BACKBONE|DICT|INTERRES
    95   49   50 1    
    96   49  115 1    
    97   50   51 1    
    98   50   52 1    
    99   50  116 1    
   100   51  117 1    
   101   51  118 1    
   102   51  119 1    
   103   52   53 2    
   104   52   54 am   BACKBONE|DICT|INTERRES
   105   54   55 1    
   106   54  120 1    
   107   55   56 1    
   108   55   57 1    
   109   55  121 1    
   110   56  122 1    
   111   56  123 1    
   112   56  124 1    
   113   57   58 2    
   114   57   59 am   BACKBONE|DICT|INTERRES
   115   59   60 1    
   116   59  125 1    
   117   60   61 1    
   118   60   62 1    
   119   60  126 1    
   120   61  127 1    
   121   61  128 1    
   122   61  129 1    
   123   62   63 2    
   124   62   64 am   BACKBONE|DICT|INTERRES
   125   64   65 1    
   126   64  130 1    
   127   65   66 1    
   128   65   69 1    
   129   65  131 1    
   130   66   67 am   BACKBONE|DICT|INTERRES
   131   66   68 2    
   132   67  132 1    
   133   67  133 1    
   134   69   70 1    
   135   69  134 1    
   136   69  135 1    
   137   70   71 1    
   138   71  136 1    
   139   71  137 1    
@<TRIPOS>SUBSTRUCTURE
     1 UNK         1 GROUP             0       ****    0 ROOT    
