@<TRIPOS>MOLECULE
3R136
137   139    1
SMALL
USER_CHARGES


@<TRIPOS>ATOM
      1 CA         29.5033   23.2455   -3.7945 C.3       0 UNK        -0.1979 
      2 C          29.3710   22.6319   -2.4079 C.2       0 UNK         0.4864 
      3 O          29.0568   21.4462   -2.2970 O.2       0 UNK        -0.5359 
      4 N          29.6174   23.4392   -1.3668 N.am      1 UNK        -0.4318 
      5 CA         29.4968   23.1277    0.0627 C.3       1 UNK         0.0824 
      6 C6         30.2653   21.8433    0.4852 C.3       12 UNK        -0.0944 
      7 S7         30.8059   21.8317    2.2300 S.3       12 UNK        -0.2672 
      8 C8         32.4615   22.5913    2.1378 C.3       12 UNK         0.0333 
      9 C9         32.3618   24.1086    2.1238 C.ar      12 UNK        -0.0807 
     10 C10        32.2233   24.8101    3.3244 C.ar      12 UNK        -0.0894 
     11 C11        32.0659   26.1989    3.3215 C.ar      12 UNK        -0.0804 
     12 C12        32.0220   26.8851    2.1036 C.ar      12 UNK        -0.0824 
     13 C13        32.1741   26.1934    0.8972 C.ar      12 UNK        -0.0762 
     14 C14        32.3758   24.8103    0.9155 C.ar      12 UNK        -0.0782 
     15 C15        32.0949   26.9270   -0.4325 C.3       12 UNK         0.0230 
     16 S16        30.4985   26.6223   -1.2566 S.3       12 UNK        -0.2608 
     17 C17        29.3550   27.5292   -0.1653 C.3       12 UNK        -0.0989 
     18 CA         28.0953   27.9944   -0.9347 C.3       5 UNK         0.0716 
     19 N          27.1858   26.8918   -1.2568 N.am      5 UNK        -0.4135 
     20 C          26.4535   26.8217   -2.3777 C.2       4 UNK         0.5031 
     21 O          26.5709   27.5978   -3.3269 O.2       4 UNK        -0.5229 
     22 CA         25.3869   25.7132   -2.4534 C.3       4 UNK         0.0329 
     23 CB         25.9461   24.4626   -3.1472 C.3       4 UNK        -0.2001 
     24 N          24.8461   25.3573   -1.1376 N.am      4 UNK        -0.4303 
     25 C          24.0308   26.1554   -0.4297 C.2       3 UNK         0.5044 
     26 O          23.5838   27.2185   -0.8603 O.2       3 UNK        -0.5152 
     27 CA         23.6513   25.7238    1.0006 C.3       3 UNK         0.0319 
     28 CB         22.2132   25.1816    1.0321 C.3       3 UNK        -0.2001 
     29 N          24.5453   24.7363    1.6142 N.am      3 UNK        -0.4354 
     30 C          25.8502   24.9070    1.8645 C.2       2 UNK         0.4964 
     31 O          26.4744   25.9272    1.5598 O.2       2 UNK        -0.5047 
     32 CA         26.6031   23.7383    2.5333 C.3       2 UNK         0.0288 
     33 CB         25.7754   22.4397    2.6772 C.3       2 UNK        -0.2113 
     34 N          27.8708   23.4664    1.8485 N.am      2 UNK        -0.4145 
     35 C          28.0347   23.1764    0.5491 C.2       1 UNK         0.5006 
     36 O          27.0978   23.0125   -0.2373 O.2       1 UNK        -0.5103 
     37 C          27.3350   29.0705   -0.1428 C.2       5 UNK         0.5055 
     38 O          27.4275   30.2485   -0.4919 O.2       5 UNK        -0.5220 
     39 N          26.6085   28.6500    0.9057 N.am      6 UNK        -0.4450 
     40 CA         25.8198   29.4362    1.8657 C.3       6 UNK         0.0367 
     41 CB         24.6766   30.2025    1.1728 C.3       6 UNK        -0.1929 
     42 C          26.6559   30.3681    2.7631 C.2       6 UNK         0.5070 
     43 O          26.4713   30.3582    3.9806 O.2       6 UNK        -0.5237 
     44 N          27.5556   31.1504    2.1586 N.am      7 UNK        -0.4739 
     45 CA         28.5181   32.0173    2.8332 C.3       7 UNK         0.0276 
     46 CB         29.0946   33.0092    1.8103 C.3       7 UNK        -0.1927 
     47 C          29.6498   31.2037    3.4803 C.2       7 UNK         0.5013 
     48 O          30.0653   30.1761    2.9358 O.2       7 UNK        -0.5193 
     49 N          30.1580   31.7065    4.6111 N.am      8 UNK        -0.4253 
     50 CA         31.2981   31.1441    5.3289 C.3       8 UNK         0.0242 
     51 CB         31.2428   31.5923    6.8014 C.3       8 UNK        -0.2000 
     52 C          32.6097   31.5629    4.6475 C.2       8 UNK         0.4948 
     53 O          33.1987   32.5788    5.0231 O.2       8 UNK        -0.5275 
     54 N          33.0490   30.7765    3.6575 N.am      9 UNK        -0.4246 
     55 CA         34.2988   30.9501    2.9077 C.3       9 UNK         0.0261 
     56 CB         34.2240   30.0989    1.6256 C.3       9 UNK        -0.1959 
     57 C          35.5341   30.6117    3.7695 C.2       9 UNK         0.5033 
     58 O          36.2016   29.6057    3.5246 O.2       9 UNK        -0.5390 
     59 N          35.7712   31.4403    4.7978 N.am      10 UNK        -0.4215 
     60 CA         36.7252   31.2616    5.9033 C.3       10 UNK         0.0240 
     61 CB         38.1827   31.2138    5.3956 C.3       10 UNK        -0.1982 
     62 C          36.3658   30.0721    6.8213 C.2       10 UNK         0.4970 
     63 O          37.2448   29.5199    7.4847 O.2       10 UNK        -0.4916 
     64 N          35.0767   29.7099    6.8479 N.am      11 UNK        -0.4279 
     65 CA         34.5144   28.5830    7.6087 C.3       11 UNK         0.1003 
     66 C          34.2374   28.8952    9.1079 C.2       11 UNK         0.5709 
     67 N          34.3867   30.1303    9.5727 N.am      11 UNK        -0.7358 
     68 O          33.8888   27.9950    9.8681 O.2       11 UNK        -0.4999 
     69 C69        33.2538   28.0028    6.9101 C.3       12 UNK        -0.0954 
     70 S70        33.5983   27.4730    5.2005 S.3       12 UNK        -0.2268 
     71 C71        31.9523   26.9505    4.6376 C.3       12 UNK         0.0203 
     72 H72        28.5916   23.0788   -4.3675 H         1 UNK         0.0888 
     73 H73        29.6819   24.3200   -3.7501 H         1 UNK         0.0888 
     74 H74        30.3320   22.7844   -4.3310 H         1 UNK         0.0888 
     75 H75        29.8562   24.4051   -1.5560 H         1 UNK         0.3017 
     76 H76        29.9681   23.9798    0.5457 H         1 UNK         0.0873 
     77 H77        31.1517   21.7151   -0.1378 H         1 UNK         0.0745 
     78 H78        29.6558   20.9555    0.3072 H         1 UNK         0.0745 
     79 H79        33.0003   22.2251    1.2627 H         1 UNK         0.0705 
     80 H80        33.0417   22.2730    3.0053 H         1 UNK         0.0705 
     81 H81        32.2319   24.2727    4.2631 H         1 UNK         0.1334 
     82 H82        31.8699   27.9557    2.0964 H         1 UNK         0.1417 
     83 H83        32.4846   24.2732   -0.0173 H         1 UNK         0.1562 
     84 H84        32.9006   26.5853   -1.0839 H         1 UNK         0.0748 
     85 H85        32.2449   27.9997   -0.2995 H         1 UNK         0.0748 
     86 H86        29.8888   28.3889    0.2468 H         1 UNK         0.0940 
     87 H87        29.0925   26.8976    0.6860 H         1 UNK         0.0940 
     88 H88        28.4324   28.4688   -1.8594 H         1 UNK         0.0703 
     89 H89        26.9928   26.2345   -0.5121 H         1 UNK         0.3081 
     90 H90        24.5649   26.0921   -3.0648 H         1 UNK         0.0719 
     91 H91        26.3004   24.7000   -4.1512 H         1 UNK         0.0809 
     92 H92        26.7859   24.0409   -2.5983 H         1 UNK         0.0809 
     93 H93        25.1860   23.6876   -3.2459 H         1 UNK         0.0809 
     94 H94        25.1768   24.4964   -0.7207 H         1 UNK         0.2990 
     95 H95        23.6893   26.6223    1.6202 H         1 UNK         0.0690 
     96 H96        21.8885   24.9731    2.0518 H         1 UNK         0.0788 
     97 H97        22.1159   24.2628    0.4523 H         1 UNK         0.0788 
     98 H98        21.5122   25.9060    0.6144 H         1 UNK         0.0788 
     99 H99        24.1279   23.8542    1.8743 H         1 UNK         0.2993 
    100 H100       26.8603   24.0830    3.5360 H         1 UNK         0.0949 
    101 H101       24.8956   22.5941    3.3033 H         1 UNK         0.0767 
    102 H102       25.4395   22.0549    1.7133 H         1 UNK         0.0767 
    103 H103       26.3647   21.6554    3.1529 H         1 UNK         0.0767 
    104 H104       28.7021   23.5880    2.4112 H         1 UNK         0.3013 
    105 H105       26.6346   27.6543    1.1236 H         1 UNK         0.3121 
    106 H106       25.3600   28.7001    2.5275 H         1 UNK         0.0774 
    107 H107       24.0390   29.5291    0.6004 H         1 UNK         0.0815 
    108 H108       24.0438   30.7018    1.9074 H         1 UNK         0.0815 
    109 H109       25.0487   30.9693    0.4931 H         1 UNK         0.0815 
    110 H110       27.6488   31.0491    1.1505 H         1 UNK         0.2987 
    111 H111       27.9911   32.5762    3.6099 H         1 UNK         0.0949 
    112 H112       28.3093   33.6180    1.3617 H         1 UNK         0.0806 
    113 H113       29.8040   33.6915    2.2807 H         1 UNK         0.0806 
    114 H114       29.6213   32.4952    1.0047 H         1 UNK         0.0806 
    115 H115       29.7882   32.5760    4.9685 H         1 UNK         0.3010 
    116 H116       31.2290   30.0553    5.3105 H         1 UNK         0.0829 
    117 H117       32.0961   31.2085    7.3619 H         1 UNK         0.0813 
    118 H118       31.2544   32.6789    6.8980 H         1 UNK         0.0813 
    119 H119       30.3423   31.2235    7.2930 H         1 UNK         0.0813 
    120 H120       32.4764   29.9860    3.3948 H         1 UNK         0.3038 
    121 H121       34.3812   31.9975    2.6091 H         1 UNK         0.0769 
    122 H122       35.1169   30.2371    1.0146 H         1 UNK         0.0811 
    123 H123       33.3662   30.3757    1.0123 H         1 UNK         0.0811 
    124 H124       34.1475   29.0344    1.8514 H         1 UNK         0.0811 
    125 H125       35.1004   32.1969    4.9187 H         1 UNK         0.3204 
    126 H126       36.6283   32.1529    6.5250 H         1 UNK         0.0748 
    127 H127       38.8874   31.2522    6.2272 H         1 UNK         0.0771 
    128 H128       38.3904   30.2992    4.8395 H         1 UNK         0.0771 
    129 H129       38.4046   32.0602    4.7458 H         1 UNK         0.0771 
    130 H130       34.4283   30.2178    6.2691 H         1 UNK         0.2980 
    131 H131       35.2652   27.7904    7.6169 H         1 UNK         0.0545 
    132 H132       34.6858   30.8753    8.9653 H         1 UNK         0.3459 
    133 H133       34.2085   30.3140   10.5475 H         1 UNK         0.3459 
    134 H134       32.8791   27.1349    7.4559 H         1 UNK         0.0616 
    135 H135       32.4455   28.7343    6.9016 H         1 UNK         0.0616 
    136 H136       31.4910   26.3151    5.3952 H         1 UNK         0.0634 
    137 H137       31.3051   27.8205    4.5225 H         1 UNK         0.0634 
@<TRIPOS>BOND
     1    1    2 1    
     2    1   72 1    
     3    1   73 1    
     4    1   74 1    
     5    2    3 2    
     6    2    4 am   BACKBONE|DICT|INTERRES
     7    4    5 1    
     8    4   75 1    
     9    5    6 1    
    10    5   35 1    
    11    5   76 1    
    12    6    7 1    
    13    6   77 1    
    14    6   78 1    
    15    7    8 1    
    16    8    9 1    
    17    8   79 1    
    18    8   80 1    
    19    9   10 ar   
    20    9   14 ar   
    21   10   11 ar   
    22   10   81 1    
    23   11   12 ar   
    24   11   71 1    
    25   12   13 ar   
    26   12   82 1    
    27   13   14 ar   
    28   13   15 1    
    29   14   83 1    
    30   15   16 1    
    31   15   84 1    
    32   15   85 1    
    33   16   17 1    
    34   17   18 1    
    35   17   86 1    
    36   17   87 1    
    37   18   19 1    
    38   18   37 1    
    39   18   88 1    
    40   19   20 am   BACKBONE|DICT|INTERRES
    41   19   89 1    
    42   20   21 2    
    43   20   22 1    
    44   22   23 1    
    45   22   24 1    
    46   22   90 1    
    47   23   91 1    
    48   23   92 1    
    49   23   93 1    
    50   24   25 am   BACKBONE|DICT|INTERRES
    51   24   94 1    
    52   25   26 2    
    53   25   27 1    
    54   27   28 1    
    55   27   29 1    
    56   27   95 1    
    57   28   96 1    
    58   28   97 1    
    59   28   98 1    
    60   29   30 am   BACKBONE|DICT|INTERRES
    61   29   99 1    
    62   30   31 2    
    63   30   32 1    
    64   32   33 1    
    65   32   34 1    
    66   32  100 1    
    67   33  101 1    
    68   33  102 1    
    69   33  103 1    
    70   34   35 am   BACKBONE|DICT|INTERRES
    71   34  104 1    
    72   35   36 2    
    73   37   38 2    
    74   37   39 am   BACKBONE|DICT|INTERRES
    75   39   40 1    
    76   39  105 1    
    77   40   41 1    
    78   40   42 1    
    79   40  106 1    
    80   41  107 1    
    81   41  108 1    
    82   41  109 1    
    83   42   43 2    
    84   42   44 am   BACKBONE|DICT|INTERRES
    85   44   45 1    
    86   44  110 1    
    87   45   46 1    
    88   45   47 1    
    89   45  111 1    
    90   46  112 1    
    91   46  113 1    
    92   46  114 1    
    93   47   48 2    
    94   47   49 am   BACKBONE|DICT|INTERRES
    95   49   50 1    
    96   49  115 1    
    97   50   51 1    
    98   50   52 1    
    99   50  116 1    
   100   51  117 1    
   101   51  118 1    
   102   51  119 1    
   103   52   53 2    
   104   52   54 am   BACKBONE|DICT|INTERRES
   105   54   55 1    
   106   54  120 1    
   107   55   56 1    
   108   55   57 1    
   109   55  121 1    
   110   56  122 1    
   111   56  123 1    
   112   56  124 1    
   113   57   58 2    
   114   57   59 am   BACKBONE|DICT|INTERRES
   115   59   60 1    
   116   59  125 1    
   117   60   61 1    
   118   60   62 1    
   119   60  126 1    
   120   61  127 1    
   121   61  128 1    
   122   61  129 1    
   123   62   63 2    
   124   62   64 am   BACKBONE|DICT|INTERRES
   125   64   65 1    
   126   64  130 1    
   127   65   66 1    
   128   65   69 1    
   129   65  131 1    
   130   66   67 am   BACKBONE|DICT|INTERRES
   131   66   68 2    
   132   67  132 1    
   133   67  133 1    
   134   69   70 1    
   135   69  134 1    
   136   69  135 1    
   137   70   71 1    
   138   71  136 1    
   139   71  137 1    
@<TRIPOS>SUBSTRUCTURE
     1 UNK         1 GROUP             0       ****    0 ROOT    
