@<TRIPOS>MOLECULE
3R136
137   139    1
SMALL
USER_CHARGES


@<TRIPOS>ATOM
      1 CA         27.6808   21.2312    1.0955 C.3       0 UNK        -0.1979 
      2 C          28.3561   22.2143    0.1533 C.2       0 UNK         0.4864 
      3 O          27.9236   22.3587   -0.9915 O.2       0 UNK        -0.5359 
      4 N          29.4186   22.8889    0.6128 N.am      1 UNK        -0.4318 
      5 CA         30.1698   23.8664   -0.1822 C.3       1 UNK         0.0824 
      6 C6         31.5540   24.2018    0.4158 C.3       12 UNK        -0.0944 
      7 S7         32.5870   22.7048    0.6110 S.3       12 UNK        -0.2672 
      8 C8         33.5869   23.0866    2.0901 C.3       12 UNK         0.0333 
      9 C9         32.7481   23.5378    3.2792 C.ar      12 UNK        -0.0807 
     10 C10        33.0555   24.7342    3.9327 C.ar      12 UNK        -0.0894 
     11 C11        32.2559   25.1983    4.9805 C.ar      12 UNK        -0.0804 
     12 C12        31.1499   24.4450    5.3854 C.ar      12 UNK        -0.0824 
     13 C13        30.8379   23.2404    4.7460 C.ar      12 UNK        -0.0762 
     14 C14        31.6494   22.7851    3.7043 C.ar      12 UNK        -0.0782 
     15 C15        29.6224   22.4282    5.1651 C.3       12 UNK         0.0230 
     16 S16        28.1524   22.8747    4.1856 S.3       12 UNK        -0.2608 
     17 C17        27.6704   24.4551    4.9519 C.3       12 UNK        -0.0989 
     18 CA         27.8159   25.6698    3.9878 C.3       5 UNK         0.0716 
     19 N          26.9195   25.6097    2.8136 N.am      5 UNK        -0.4135 
     20 C          25.5758   25.6512    2.8649 C.2       4 UNK         0.5031 
     21 O          24.9330   25.6052    3.9145 O.2       4 UNK        -0.5229 
     22 CA         24.7890   25.8539    1.5632 C.3       4 UNK         0.0329 
     23 CB         24.5711   27.3574    1.3033 C.3       4 UNK        -0.2001 
     24 N          25.3761   25.2303    0.3747 N.am      4 UNK        -0.4303 
     25 C          24.6376   24.8087   -0.6662 C.2       3 UNK         0.5044 
     26 O          23.4047   24.7886   -0.6576 O.2       3 UNK        -0.5152 
     27 CA         25.3817   24.3452   -1.9363 C.3       3 UNK         0.0319 
     28 CB         24.5373   24.5051   -3.2194 C.3       3 UNK        -0.2001 
     29 N          26.6994   24.9680   -2.0988 N.am      3 UNK        -0.4354 
     30 C          26.9828   26.2768   -2.2268 C.2       2 UNK         0.4964 
     31 O          26.1256   27.1545   -2.3348 O.2       2 UNK        -0.5047 
     32 CA         28.4759   26.6780   -2.2097 C.3       2 UNK         0.0288 
     33 CB         28.7044   28.0329   -1.5054 C.3       2 UNK        -0.2113 
     34 N          29.3568   25.6394   -1.6523 N.am      2 UNK        -0.4145 
     35 C          29.3170   25.1297   -0.4119 C.2       1 UNK         0.5006 
     36 O          28.5948   25.5668    0.4942 O.2       1 UNK        -0.5103 
     37 C          27.7044   27.0205    4.7481 C.2       5 UNK         0.5055 
     38 O          28.0265   27.0863    5.9363 O.2       5 UNK        -0.5220 
     39 N          27.2311   28.0701    4.0631 N.am      6 UNK        -0.4450 
     40 CA         27.0274   29.4137    4.6020 C.3       6 UNK         0.0367 
     41 CB         25.7637   30.0074    3.9553 C.3       6 UNK        -0.1929 
     42 C          28.2449   30.3012    4.3114 C.2       6 UNK         0.5070 
     43 O          29.0462   29.9655    3.4384 O.2       6 UNK        -0.5237 
     44 N          28.3208   31.4393    5.0143 N.am      7 UNK        -0.4739 
     45 CA         29.3808   32.4538    4.9447 C.3       7 UNK         0.0276 
     46 CB         29.4773   33.0696    3.5272 C.3       7 UNK        -0.1927 
     47 C          30.7234   31.9347    5.5011 C.2       7 UNK         0.5013 
     48 O          30.7234   31.1226    6.4288 O.2       7 UNK        -0.5193 
     49 N          31.8361   32.4484    4.9688 N.am      8 UNK        -0.4253 
     50 CA         33.2096   32.1173    5.3327 C.3       8 UNK         0.0242 
     51 CB         33.6135   32.8602    6.6201 C.3       8 UNK        -0.2000 
     52 C          34.1111   32.5156    4.1590 C.2       8 UNK         0.4948 
     53 O          33.6861   33.3085    3.3118 O.2       8 UNK        -0.5275 
     54 N          35.3307   31.9582    4.1239 N.am      9 UNK        -0.4246 
     55 CA         36.3597   32.0876    3.0778 C.3       9 UNK         0.0261 
     56 CB         36.8391   33.5444    2.9086 C.3       9 UNK        -0.1959 
     57 C          35.9215   31.4595    1.7433 C.2       9 UNK         0.5033 
     58 O          36.4780   30.4377    1.3414 O.2       9 UNK        -0.5390 
     59 N          34.8777   32.0278    1.1309 N.am      10 UNK        -0.4215 
     60 CA         34.1023   31.4380    0.0400 C.3       10 UNK         0.0240 
     61 CB         33.7114   32.5474   -0.9544 C.3       10 UNK        -0.1982 
     62 C          32.8827   30.7173    0.6451 C.2       10 UNK         0.4970 
     63 O          31.7415   31.0332    0.3061 O.2       10 UNK        -0.4916 
     64 N          33.1606   29.8056    1.5846 N.am      11 UNK        -0.4279 
     65 CA         32.1761   29.0528    2.3668 C.3       11 UNK         0.1003 
     66 C          31.3583   28.0604    1.4963 C.2       11 UNK         0.5709 
     67 N          30.0636   27.9353    1.7452 N.am      11 UNK        -0.7358 
     68 O          31.9012   27.3883    0.6225 O.2       11 UNK        -0.4999 
     69 C69        32.8795   28.3441    3.5528 C.3       12 UNK        -0.0954 
     70 S70        31.7413   27.9255    4.9143 S.3       12 UNK        -0.2268 
     71 C71        32.5865   26.5079    5.6822 C.3       12 UNK         0.0203 
     72 H72        26.7971   21.6863    1.5420 H         1 UNK         0.0888 
     73 H73        27.3695   20.3395    0.5523 H         1 UNK         0.0888 
     74 H74        28.3512   20.9180    1.8954 H         1 UNK         0.0888 
     75 H75        29.7159   22.7765    1.5709 H         1 UNK         0.3017 
     76 H76        30.3487   23.4054   -1.1566 H         1 UNK         0.0873 
     77 H77        32.0943   24.8883   -0.2382 H         1 UNK         0.0745 
     78 H78        31.4328   24.7206    1.3674 H         1 UNK         0.0745 
     79 H79        34.3175   23.8508    1.8203 H         1 UNK         0.0705 
     80 H80        34.1559   22.2000    2.3722 H         1 UNK         0.0705 
     81 H81        33.9133   25.3103    3.6163 H         1 UNK         0.1334 
     82 H82        30.5308   24.8046    6.1954 H         1 UNK         0.1417 
     83 H83        31.4109   21.8565    3.2035 H         1 UNK         0.1562 
     84 H84        29.4191   22.5562    6.2295 H         1 UNK         0.0748 
     85 H85        29.8244   21.3651    5.0253 H         1 UNK         0.0748 
     86 H86        28.2703   24.5944    5.8508 H         1 UNK         0.0940 
     87 H87        26.6469   24.3611    5.3150 H         1 UNK         0.0940 
     88 H88        28.8320   25.6536    3.5887 H         1 UNK         0.0703 
     89 H89        27.4000   25.6335    1.9177 H         1 UNK         0.3081 
     90 H90        23.8116   25.4019    1.7471 H         1 UNK         0.0719 
     91 H91        24.1537   27.8537    2.1805 H         1 UNK         0.0809 
     92 H92        25.5042   27.8620    1.0498 H         1 UNK         0.0809 
     93 H93        23.8734   27.5203    0.4817 H         1 UNK         0.0809 
     94 H94        26.3852   25.2072    0.3014 H         1 UNK         0.2990 
     95 H95        25.5632   23.2787   -1.7998 H         1 UNK         0.0690 
     96 H96        24.2420   25.5418   -3.3840 H         1 UNK         0.0788 
     97 H97        23.6232   23.9129   -3.1634 H         1 UNK         0.0788 
     98 H98        25.0850   24.1679   -4.0993 H         1 UNK         0.0788 
     99 H99        27.4731   24.3214   -2.0012 H         1 UNK         0.2993 
    100 H100       28.7675   26.7952   -3.2546 H         1 UNK         0.0949 
    101 H101       28.2876   28.0420   -0.4982 H         1 UNK         0.0767 
    102 H102       29.7654   28.2733   -1.4327 H         1 UNK         0.0767 
    103 H103       28.2263   28.8437   -2.0561 H         1 UNK         0.0767 
    104 H104       29.9845   25.2118   -2.3199 H         1 UNK         0.3013 
    105 H105       27.0548   27.9563    3.0772 H         1 UNK         0.3121 
    106 H106       26.8807   29.3637    5.6832 H         1 UNK         0.0774 
    107 H107       25.5464   31.0002    4.3511 H         1 UNK         0.0815 
    108 H108       25.8698   30.1049    2.8740 H         1 UNK         0.0815 
    109 H109       24.8901   29.3857    4.1525 H         1 UNK         0.0815 
    110 H110       27.6176   31.6042    5.7213 H         1 UNK         0.2987 
    111 H111       29.0721   33.2510    5.6228 H         1 UNK         0.0949 
    112 H112       28.4928   33.3487    3.1519 H         1 UNK         0.0806 
    113 H113       30.0819   33.9772    3.5273 H         1 UNK         0.0806 
    114 H114       29.9206   32.3785    2.8084 H         1 UNK         0.0806 
    115 H115       31.7716   33.0862    4.1840 H         1 UNK         0.3010 
    116 H116       33.2865   31.0384    5.4844 H         1 UNK         0.0829 
    117 H117       32.9801   32.5746    7.4601 H         1 UNK         0.0813 
    118 H118       34.6419   32.6318    6.9021 H         1 UNK         0.0813 
    119 H119       33.5400   33.9418    6.4991 H         1 UNK         0.0813 
    120 H120       35.5713   31.3199    4.8704 H         1 UNK         0.3038 
    121 H121       37.2157   31.5085    3.4288 H         1 UNK         0.0769 
    122 H122       37.2206   33.9439    3.8482 H         1 UNK         0.0811 
    123 H123       37.6491   33.6028    2.1804 H         1 UNK         0.0811 
    124 H124       36.0477   34.2097    2.5630 H         1 UNK         0.0811 
    125 H125       34.4248   32.7843    1.6405 H         1 UNK         0.3204 
    126 H126       34.6978   30.6951   -0.4949 H         1 UNK         0.0748 
    127 H127       33.1417   32.1398   -1.7905 H         1 UNK         0.0771 
    128 H128       33.0976   33.3159   -0.4824 H         1 UNK         0.0771 
    129 H129       34.5940   33.0335   -1.3703 H         1 UNK         0.0771 
    130 H130       34.1296   29.5822    1.7576 H         1 UNK         0.2980 
    131 H131       31.4948   29.7994    2.7763 H         1 UNK         0.0545 
    132 H132       29.6280   28.5584    2.4228 H         1 UNK         0.3459 
    133 H133       29.5186   27.2698    1.2158 H         1 UNK         0.3459 
    134 H134       33.4079   27.4564    3.2074 H         1 UNK         0.0616 
    135 H135       33.6419   28.9958    3.9822 H         1 UNK         0.0616 
    136 H136       32.2819   26.4497    6.7282 H         1 UNK         0.0634 
    137 H137       33.6640   26.6795    5.6903 H         1 UNK         0.0634 
@<TRIPOS>BOND
     1    1    2 1    
     2    1   72 1    
     3    1   73 1    
     4    1   74 1    
     5    2    3 2    
     6    2    4 am   BACKBONE|DICT|INTERRES
     7    4    5 1    
     8    4   75 1    
     9    5    6 1    
    10    5   35 1    
    11    5   76 1    
    12    6    7 1    
    13    6   77 1    
    14    6   78 1    
    15    7    8 1    
    16    8    9 1    
    17    8   79 1    
    18    8   80 1    
    19    9   10 ar   
    20    9   14 ar   
    21   10   11 ar   
    22   10   81 1    
    23   11   12 ar   
    24   11   71 1    
    25   12   13 ar   
    26   12   82 1    
    27   13   14 ar   
    28   13   15 1    
    29   14   83 1    
    30   15   16 1    
    31   15   84 1    
    32   15   85 1    
    33   16   17 1    
    34   17   18 1    
    35   17   86 1    
    36   17   87 1    
    37   18   19 1    
    38   18   37 1    
    39   18   88 1    
    40   19   20 am   BACKBONE|DICT|INTERRES
    41   19   89 1    
    42   20   21 2    
    43   20   22 1    
    44   22   23 1    
    45   22   24 1    
    46   22   90 1    
    47   23   91 1    
    48   23   92 1    
    49   23   93 1    
    50   24   25 am   BACKBONE|DICT|INTERRES
    51   24   94 1    
    52   25   26 2    
    53   25   27 1    
    54   27   28 1    
    55   27   29 1    
    56   27   95 1    
    57   28   96 1    
    58   28   97 1    
    59   28   98 1    
    60   29   30 am   BACKBONE|DICT|INTERRES
    61   29   99 1    
    62   30   31 2    
    63   30   32 1    
    64   32   33 1    
    65   32   34 1    
    66   32  100 1    
    67   33  101 1    
    68   33  102 1    
    69   33  103 1    
    70   34   35 am   BACKBONE|DICT|INTERRES
    71   34  104 1    
    72   35   36 2    
    73   37   38 2    
    74   37   39 am   BACKBONE|DICT|INTERRES
    75   39   40 1    
    76   39  105 1    
    77   40   41 1    
    78   40   42 1    
    79   40  106 1    
    80   41  107 1    
    81   41  108 1    
    82   41  109 1    
    83   42   43 2    
    84   42   44 am   BACKBONE|DICT|INTERRES
    85   44   45 1    
    86   44  110 1    
    87   45   46 1    
    88   45   47 1    
    89   45  111 1    
    90   46  112 1    
    91   46  113 1    
    92   46  114 1    
    93   47   48 2    
    94   47   49 am   BACKBONE|DICT|INTERRES
    95   49   50 1    
    96   49  115 1    
    97   50   51 1    
    98   50   52 1    
    99   50  116 1    
   100   51  117 1    
   101   51  118 1    
   102   51  119 1    
   103   52   53 2    
   104   52   54 am   BACKBONE|DICT|INTERRES
   105   54   55 1    
   106   54  120 1    
   107   55   56 1    
   108   55   57 1    
   109   55  121 1    
   110   56  122 1    
   111   56  123 1    
   112   56  124 1    
   113   57   58 2    
   114   57   59 am   BACKBONE|DICT|INTERRES
   115   59   60 1    
   116   59  125 1    
   117   60   61 1    
   118   60   62 1    
   119   60  126 1    
   120   61  127 1    
   121   61  128 1    
   122   61  129 1    
   123   62   63 2    
   124   62   64 am   BACKBONE|DICT|INTERRES
   125   64   65 1    
   126   64  130 1    
   127   65   66 1    
   128   65   69 1    
   129   65  131 1    
   130   66   67 am   BACKBONE|DICT|INTERRES
   131   66   68 2    
   132   67  132 1    
   133   67  133 1    
   134   69   70 1    
   135   69  134 1    
   136   69  135 1    
   137   70   71 1    
   138   71  136 1    
   139   71  137 1    
@<TRIPOS>SUBSTRUCTURE
     1 UNK         1 GROUP             0       ****    0 ROOT    
