@<TRIPOS>MOLECULE
3R136
137   139    1
SMALL
USER_CHARGES


@<TRIPOS>ATOM
      1 CA         28.6712   22.0413   -3.7166 C.3       0 UNK        -0.1979 
      2 C          28.2060   22.9368   -2.5790 C.2       0 UNK         0.4864 
      3 O          27.0437   23.3447   -2.5551 O.2       0 UNK        -0.5359 
      4 N          29.0927   23.2270   -1.6155 N.am      1 UNK        -0.4318 
      5 CA         28.8415   24.1175   -0.4719 C.3       1 UNK         0.0824 
      6 C6         30.1455   24.5427    0.2455 C.3       12 UNK        -0.0944 
      7 S7         31.1717   23.1521    0.8411 S.3       12 UNK        -0.2672 
      8 C8         30.6289   22.9583    2.5744 C.3       12 UNK         0.0333 
      9 C9         30.7447   24.2384    3.3944 C.ar      12 UNK        -0.0807 
     10 C10        31.9656   24.9153    3.4867 C.ar      12 UNK        -0.0894 
     11 C11        32.0680   26.0931    4.2316 C.ar      12 UNK        -0.0804 
     12 C12        30.9445   26.5846    4.9005 C.ar      12 UNK        -0.0824 
     13 C13        29.7240   25.9075    4.8355 C.ar      12 UNK        -0.0762 
     14 C14        29.6278   24.7390    4.0734 C.ar      12 UNK        -0.0782 
     15 C15        28.5258   26.4202    5.6245 C.3       12 UNK         0.0230 
     16 S16        27.1636   26.9932    4.5607 S.3       12 UNK        -0.2608 
     17 C17        27.9287   28.3909    3.6696 C.3       12 UNK        -0.0989 
     18 CA         27.9273   28.1689    2.1356 C.3       5 UNK         0.0716 
     19 N          26.5615   27.9817    1.6245 N.am      5 UNK        -0.4135 
     20 C          26.2260   27.3840    0.4759 C.2       4 UNK         0.5031 
     21 O          27.0413   27.0202   -0.3756 O.2       4 UNK        -0.5229 
     22 CA         24.7346   27.1698    0.2121 C.3       4 UNK         0.0329 
     23 CB         24.1801   28.2718   -0.7100 C.3       4 UNK        -0.2001 
     24 N          24.5888   25.8550   -0.4039 N.am      4 UNK        -0.4303 
     25 C          23.4573   25.1498   -0.5090 C.2       3 UNK         0.5044 
     26 O          22.3553   25.5546   -0.1365 O.2       3 UNK        -0.5152 
     27 CA         23.5812   23.7427   -1.1177 C.3       3 UNK         0.0319 
     28 CB         23.6524   23.8164   -2.6515 C.3       3 UNK        -0.2001 
     29 N          24.7467   23.0185   -0.6014 N.am      3 UNK        -0.4354 
     30 C          24.8120   22.4834    0.6301 C.2       2 UNK         0.4964 
     31 O          23.8720   22.4916    1.4256 O.2       2 UNK        -0.5047 
     32 CA         26.1382   21.8242    1.0603 C.3       2 UNK         0.0288 
     33 CB         26.0850   20.3046    0.8340 C.3       2 UNK        -0.2113 
     34 N          27.3035   22.3713    0.3659 N.am      2 UNK        -0.4145 
     35 C          27.7632   23.6209    0.5205 C.2       1 UNK         0.5006 
     36 O          27.3458   24.3833    1.3921 O.2       1 UNK        -0.5103 
     37 C          28.6879   29.2835    1.3789 C.2       5 UNK         0.5055 
     38 O          29.1460   30.2526    1.9886 O.2       5 UNK        -0.5220 
     39 N          28.8078   29.1221    0.0546 N.am      6 UNK        -0.4450 
     40 CA         29.4264   30.0562   -0.8907 C.3       6 UNK         0.0367 
     41 CB         29.1774   29.5519   -2.3211 C.3       6 UNK        -0.1929 
     42 C          30.9284   30.2992   -0.6615 C.2       6 UNK         0.5070 
     43 O          31.4458   31.3248   -1.1060 O.2       6 UNK        -0.5237 
     44 N          31.6020   29.3846    0.0492 N.am      7 UNK        -0.4739 
     45 CA         33.0025   29.4741    0.4740 C.3       7 UNK         0.0276 
     46 CB         33.4928   28.0598    0.8352 C.3       7 UNK        -0.1927 
     47 C          33.2089   30.4894    1.6201 C.2       7 UNK         0.5013 
     48 O          33.7353   30.1360    2.6760 O.2       7 UNK        -0.5193 
     49 N          32.7605   31.7328    1.3963 N.am      8 UNK        -0.4253 
     50 CA         32.8548   32.9068    2.2744 C.3       8 UNK         0.0242 
     51 CB         34.3250   33.3659    2.3828 C.3       8 UNK        -0.2000 
     52 C          32.2030   32.7350    3.6630 C.2       8 UNK         0.4948 
     53 O          32.5712   33.4614    4.5884 O.2       8 UNK        -0.5275 
     54 N          31.2742   31.7752    3.8043 N.am      9 UNK        -0.4246 
     55 CA         30.5656   31.3396    5.0188 C.3       9 UNK         0.0261 
     56 CB         29.6550   32.4551    5.5660 C.3       9 UNK        -0.1959 
     57 C          31.4592   30.7596    6.1349 C.2       9 UNK         0.5033 
     58 O          31.1102   29.7284    6.7083 O.2       9 UNK        -0.5390 
     59 N          32.5781   31.4274    6.4317 N.am      10 UNK        -0.4215 
     60 CA         33.5355   31.0880    7.4852 C.3       10 UNK         0.0240 
     61 CB         34.1489   32.3950    8.0181 C.3       10 UNK        -0.1982 
     62 C          34.6431   30.1170    7.0343 C.2       10 UNK         0.4970 
     63 O          35.4510   29.7233    7.8766 O.2       10 UNK        -0.4916 
     64 N          34.6888   29.7674    5.7402 N.am      11 UNK        -0.4279 
     65 CA         35.7046   28.8996    5.1119 C.3       11 UNK         0.1003 
     66 C          37.1107   29.5563    4.9638 C.2       11 UNK         0.5709 
     67 N          37.2520   30.8669    5.1273 N.am      11 UNK        -0.7358 
     68 O          38.0891   28.8752    4.6645 O.2       11 UNK        -0.4999 
     69 C69        35.7784   27.4626    5.7177 C.3       12 UNK        -0.0954 
     70 S70        34.1823   26.5984    5.9313 S.3       12 UNK        -0.2268 
     71 C71        33.3868   26.8424    4.3156 C.3       12 UNK         0.0203 
     72 H72        28.0588   21.1411   -3.7600 H         1 UNK         0.0888 
     73 H73        28.5751   22.5651   -4.6672 H         1 UNK         0.0888 
     74 H74        29.7119   21.7397   -3.5988 H         1 UNK         0.0888 
     75 H75        30.0269   22.8437   -1.6633 H         1 UNK         0.3017 
     76 H76        28.4250   25.0255   -0.9071 H         1 UNK         0.0873 
     77 H77        29.9310   25.2375    1.0588 H         1 UNK         0.0745 
     78 H78        30.7602   25.1142   -0.4516 H         1 UNK         0.0745 
     79 H79        29.6049   22.5828    2.5833 H         1 UNK         0.0705 
     80 H80        31.2383   22.1859    3.0451 H         1 UNK         0.0705 
     81 H81        32.8324   24.5281    2.9686 H         1 UNK         0.1334 
     82 H82        31.0310   27.4867    5.4895 H         1 UNK         0.1417 
     83 H83        28.6796   24.2215    4.0127 H         1 UNK         0.1562 
     84 H84        28.8179   27.2323    6.2928 H         1 UNK         0.0748 
     85 H85        28.1554   25.6188    6.2653 H         1 UNK         0.0748 
     86 H86        28.9490   28.5248    4.0305 H         1 UNK         0.0940 
     87 H87        27.3931   29.3057    3.9306 H         1 UNK         0.0940 
     88 H88        28.4778   27.2440    1.9461 H         1 UNK         0.0703 
     89 H89        25.8244   28.2674    2.2522 H         1 UNK         0.3081 
     90 H90        24.1959   27.1762    1.1621 H         1 UNK         0.0719 
     91 H91        24.6813   28.2735   -1.6790 H         1 UNK         0.0809 
     92 H92        23.1118   28.1471   -0.8866 H         1 UNK         0.0809 
     93 H93        24.3202   29.2589   -0.2676 H         1 UNK         0.0809 
     94 H94        25.4601   25.4487   -0.7215 H         1 UNK         0.2990 
     95 H95        22.6821   23.1826   -0.8514 H         1 UNK         0.0690 
     96 H96        23.6929   22.8213   -3.0947 H         1 UNK         0.0788 
     97 H97        24.5289   24.3694   -2.9916 H         1 UNK         0.0788 
     98 H98        22.7730   24.3176   -3.0583 H         1 UNK         0.0788 
     99 H99        25.5634   22.9846   -1.2047 H         1 UNK         0.2993 
    100 H100       26.2635   22.0099    2.1295 H         1 UNK         0.0949 
    101 H101       25.2408   19.8610    1.3640 H         1 UNK         0.0767 
    102 H102       25.9734   20.0568   -0.2225 H         1 UNK         0.0767 
    103 H103       26.9883   19.8167    1.2012 H         1 UNK         0.0767 
    104 H104       27.7079   21.8063   -0.3662 H         1 UNK         0.3013 
    105 H105       28.3469   28.3052   -0.3437 H         1 UNK         0.3121 
    106 H106       28.9252   31.0191   -0.7733 H         1 UNK         0.0774 
    107 H107       29.5947   30.2402   -3.0575 H         1 UNK         0.0815 
    108 H108       29.6350   28.5762   -2.4894 H         1 UNK         0.0815 
    109 H109       28.1112   29.4628   -2.5308 H         1 UNK         0.0815 
    110 H110       31.0826   28.5884    0.3873 H         1 UNK         0.2987 
    111 H111       33.5999   29.8282   -0.3691 H         1 UNK         0.0949 
    112 H112       32.8844   27.6161    1.6227 H         1 UNK         0.0806 
    113 H113       33.4542   27.3955   -0.0282 H         1 UNK         0.0806 
    114 H114       34.5266   28.0745    1.1835 H         1 UNK         0.0806 
    115 H115       32.3070   31.8868    0.4983 H         1 UNK         0.3010 
    116 H116       32.2942   33.7008    1.7791 H         1 UNK         0.0829 
    117 H117       34.7696   33.5096    1.3981 H         1 UNK         0.0813 
    118 H118       34.4049   34.3166    2.9115 H         1 UNK         0.0813 
    119 H119       34.9350   32.6407    2.9230 H         1 UNK         0.0813 
    120 H120       31.0352   31.2445    2.9753 H         1 UNK         0.3038 
    121 H121       29.9163   30.5269    4.6947 H         1 UNK         0.0769 
    122 H122       28.9519   32.7976    4.8068 H         1 UNK         0.0811 
    123 H123       30.2253   33.3187    5.9094 H         1 UNK         0.0811 
    124 H124       29.0681   32.0971    6.4129 H         1 UNK         0.0811 
    125 H125       32.7574   32.2742    5.8908 H         1 UNK         0.3204 
    126 H126       33.0015   30.6043    8.3058 H         1 UNK         0.0748 
    127 H127       33.3793   33.0654    8.4013 H         1 UNK         0.0771 
    128 H128       34.8422   32.2008    8.8378 H         1 UNK         0.0771 
    129 H129       34.7003   32.9276    7.2421 H         1 UNK         0.0771 
    130 H130       34.0027   30.1500    5.1044 H         1 UNK         0.2980 
    131 H131       35.3813   28.7822    4.0797 H         1 UNK         0.0545 
    132 H132       38.1638   31.2817    5.0184 H         1 UNK         0.3459 
    133 H133       36.4585   31.4412    5.3586 H         1 UNK         0.3459 
    134 H134       36.4031   26.8266    5.0882 H         1 UNK         0.0616 
    135 H135       36.2702   27.4873    6.6911 H         1 UNK         0.0616 
    136 H136       33.1959   27.9037    4.1561 H         1 UNK         0.0634 
    137 H137       34.0678   26.5192    3.5269 H         1 UNK         0.0634 
@<TRIPOS>BOND
     1    1    2 1    
     2    1   72 1    
     3    1   73 1    
     4    1   74 1    
     5    2    3 2    
     6    2    4 am   BACKBONE|DICT|INTERRES
     7    4    5 1    
     8    4   75 1    
     9    5    6 1    
    10    5   35 1    
    11    5   76 1    
    12    6    7 1    
    13    6   77 1    
    14    6   78 1    
    15    7    8 1    
    16    8    9 1    
    17    8   79 1    
    18    8   80 1    
    19    9   10 ar   
    20    9   14 ar   
    21   10   11 ar   
    22   10   81 1    
    23   11   12 ar   
    24   11   71 1    
    25   12   13 ar   
    26   12   82 1    
    27   13   14 ar   
    28   13   15 1    
    29   14   83 1    
    30   15   16 1    
    31   15   84 1    
    32   15   85 1    
    33   16   17 1    
    34   17   18 1    
    35   17   86 1    
    36   17   87 1    
    37   18   19 1    
    38   18   37 1    
    39   18   88 1    
    40   19   20 am   BACKBONE|DICT|INTERRES
    41   19   89 1    
    42   20   21 2    
    43   20   22 1    
    44   22   23 1    
    45   22   24 1    
    46   22   90 1    
    47   23   91 1    
    48   23   92 1    
    49   23   93 1    
    50   24   25 am   BACKBONE|DICT|INTERRES
    51   24   94 1    
    52   25   26 2    
    53   25   27 1    
    54   27   28 1    
    55   27   29 1    
    56   27   95 1    
    57   28   96 1    
    58   28   97 1    
    59   28   98 1    
    60   29   30 am   BACKBONE|DICT|INTERRES
    61   29   99 1    
    62   30   31 2    
    63   30   32 1    
    64   32   33 1    
    65   32   34 1    
    66   32  100 1    
    67   33  101 1    
    68   33  102 1    
    69   33  103 1    
    70   34   35 am   BACKBONE|DICT|INTERRES
    71   34  104 1    
    72   35   36 2    
    73   37   38 2    
    74   37   39 am   BACKBONE|DICT|INTERRES
    75   39   40 1    
    76   39  105 1    
    77   40   41 1    
    78   40   42 1    
    79   40  106 1    
    80   41  107 1    
    81   41  108 1    
    82   41  109 1    
    83   42   43 2    
    84   42   44 am   BACKBONE|DICT|INTERRES
    85   44   45 1    
    86   44  110 1    
    87   45   46 1    
    88   45   47 1    
    89   45  111 1    
    90   46  112 1    
    91   46  113 1    
    92   46  114 1    
    93   47   48 2    
    94   47   49 am   BACKBONE|DICT|INTERRES
    95   49   50 1    
    96   49  115 1    
    97   50   51 1    
    98   50   52 1    
    99   50  116 1    
   100   51  117 1    
   101   51  118 1    
   102   51  119 1    
   103   52   53 2    
   104   52   54 am   BACKBONE|DICT|INTERRES
   105   54   55 1    
   106   54  120 1    
   107   55   56 1    
   108   55   57 1    
   109   55  121 1    
   110   56  122 1    
   111   56  123 1    
   112   56  124 1    
   113   57   58 2    
   114   57   59 am   BACKBONE|DICT|INTERRES
   115   59   60 1    
   116   59  125 1    
   117   60   61 1    
   118   60   62 1    
   119   60  126 1    
   120   61  127 1    
   121   61  128 1    
   122   61  129 1    
   123   62   63 2    
   124   62   64 am   BACKBONE|DICT|INTERRES
   125   64   65 1    
   126   64  130 1    
   127   65   66 1    
   128   65   69 1    
   129   65  131 1    
   130   66   67 am   BACKBONE|DICT|INTERRES
   131   66   68 2    
   132   67  132 1    
   133   67  133 1    
   134   69   70 1    
   135   69  134 1    
   136   69  135 1    
   137   70   71 1    
   138   71  136 1    
   139   71  137 1    
@<TRIPOS>SUBSTRUCTURE
     1 UNK         1 GROUP             0       ****    0 ROOT    
