@<TRIPOS>MOLECULE
3R136
137   139    1
SMALL
USER_CHARGES


@<TRIPOS>ATOM
      1 CA         27.0754   19.2463   -2.0278 C.3       0 UNK        -0.1979 
      2 C          27.8695   20.5154   -2.3004 C.2       0 UNK         0.4864 
      3 O          28.2274   20.7781   -3.4497 O.2       0 UNK        -0.5359 
      4 N          28.1530   21.3013   -1.2533 N.am      1 UNK        -0.4318 
      5 CA         28.8495   22.5862   -1.3378 C.3       1 UNK         0.0824 
      6 C6         29.3984   23.0130    0.0461 C.3       12 UNK        -0.0944 
      7 S7         30.6112   24.3781   -0.0493 S.3       12 UNK        -0.2672 
      8 C8         32.0530   23.6902    0.8373 C.3       12 UNK         0.0333 
      9 C9         31.9638   23.9091    2.3442 C.ar      12 UNK        -0.0807 
     10 C10        32.8610   24.7665    2.9938 C.ar      12 UNK        -0.0894 
     11 C11        32.7737   24.9740    4.3758 C.ar      12 UNK        -0.0804 
     12 C12        31.7697   24.3303    5.1049 C.ar      12 UNK        -0.0824 
     13 C13        30.8541   23.4940    4.4635 C.ar      12 UNK        -0.0762 
     14 C14        30.9800   23.2581    3.0938 C.ar      12 UNK        -0.0782 
     15 C15        29.6777   22.9072    5.2267 C.3       12 UNK         0.0230 
     16 S16        28.1089   23.6718    4.6914 S.3       12 UNK        -0.2608 
     17 C17        28.4110   25.4426    5.0346 C.3       12 UNK        -0.0989 
     18 CA         28.8829   26.2434    3.7789 C.3       5 UNK         0.0716 
     19 N          27.9773   26.1332    2.6333 N.am      5 UNK        -0.4135 
     20 C          26.7191   26.5885    2.5656 C.2       4 UNK         0.5031 
     21 O          26.1353   27.1461    3.4979 O.2       4 UNK        -0.5229 
     22 CA         26.0083   26.3799    1.2132 C.3       4 UNK         0.0329 
     23 CB         24.6600   27.1251    1.1113 C.3       4 UNK        -0.2001 
     24 N          26.8747   26.6957    0.0695 N.am      4 UNK        -0.4303 
     25 C          27.4437   27.8825   -0.2056 C.2       3 UNK         0.5044 
     26 O          27.2566   28.8988    0.4613 O.2       3 UNK        -0.5152 
     27 CA         28.4006   27.9631   -1.4128 C.3       3 UNK         0.0319 
     28 CB         29.8491   28.1513   -0.9361 C.3       3 UNK        -0.2001 
     29 N          28.3526   26.7894   -2.2840 N.am      3 UNK        -0.4354 
     30 C          27.3703   26.5098   -3.1513 C.2       2 UNK         0.4964 
     31 O          26.4211   27.2601   -3.3783 O.2       2 UNK        -0.5047 
     32 CA         27.4464   25.1485   -3.8687 C.3       2 UNK         0.0288 
     33 CB         28.0333   25.3162   -5.2798 C.3       2 UNK        -0.2113 
     34 N          28.2187   24.1310   -3.1429 N.am      2 UNK        -0.4145 
     35 C          27.9022   23.6445   -1.9339 C.2       1 UNK         0.5006 
     36 O          26.9213   24.0129   -1.2826 O.2       1 UNK        -0.5103 
     37 C          29.2326   27.7234    4.0560 C.2       5 UNK         0.5055 
     38 O          29.4366   28.4896    3.1089 O.2       5 UNK        -0.5220 
     39 N          29.2995   28.1124    5.3370 N.am      6 UNK        -0.4450 
     40 CA         29.7051   29.4353    5.8274 C.3       6 UNK         0.0367 
     41 CB         29.8097   29.3780    7.3610 C.3       6 UNK        -0.1929 
     42 C          28.8207   30.6182    5.3803 C.2       6 UNK         0.5070 
     43 O          29.1664   31.7638    5.6700 O.2       6 UNK        -0.5237 
     44 N          27.7138   30.3413    4.6760 N.am      7 UNK        -0.4739 
     45 CA         26.8814   31.3307    3.9921 C.3       7 UNK         0.0276 
     46 CB         25.6308   30.6370    3.4301 C.3       7 UNK        -0.1927 
     47 C          27.6288   32.0814    2.8730 C.2       7 UNK         0.5013 
     48 O          27.3191   33.2516    2.6419 O.2       7 UNK        -0.5193 
     49 N          28.5979   31.4223    2.2183 N.am      8 UNK        -0.4253 
     50 CA         29.4459   32.0377    1.1922 C.3       8 UNK         0.0242 
     51 CB         28.7490   31.9896   -0.1813 C.3       8 UNK        -0.2000 
     52 C          30.8751   31.4733    1.1196 C.2       8 UNK         0.4948 
     53 O          31.7134   32.1163    0.4840 O.2       8 UNK        -0.5275 
     54 N          31.1624   30.3148    1.7358 N.am      9 UNK        -0.4246 
     55 CA         32.5135   29.7449    1.7868 C.3       9 UNK         0.0261 
     56 CB         32.4346   28.2605    2.1817 C.3       9 UNK        -0.1959 
     57 C          33.4188   30.5132    2.7650 C.2       9 UNK         0.5033 
     58 O          32.9245   31.2346    3.6356 O.2       9 UNK        -0.5390 
     59 N          34.7363   30.3018    2.6333 N.am      10 UNK        -0.4215 
     60 CA         35.7941   30.9413    3.4299 C.3       10 UNK         0.0240 
     61 CB         37.1643   30.4722    2.9129 C.3       10 UNK        -0.1982 
     62 C          35.6939   30.7236    4.9530 C.2       10 UNK         0.4970 
     63 O          36.2358   31.5308    5.7091 O.2       10 UNK        -0.4916 
     64 N          34.9987   29.6599    5.3731 N.am      11 UNK        -0.4279 
     65 CA         34.6159   29.4005    6.7667 C.3       11 UNK         0.1003 
     66 C          33.5202   30.3524    7.3368 C.2       11 UNK         0.5709 
     67 N          32.8465   31.1657    6.5310 N.am      11 UNK        -0.7358 
     68 O          33.2912   30.3638    8.5439 O.2       11 UNK        -0.4999 
     69 C69        34.2701   27.9050    6.9889 C.3       12 UNK        -0.0954 
     70 S70        32.9339   27.2811    5.9091 S.3       12 UNK        -0.2268 
     71 C71        33.7643   25.8788    5.0954 C.3       12 UNK         0.0203 
     72 H72        26.1404   19.2618   -2.5871 H         1 UNK         0.0888 
     73 H73        27.6459   18.3723   -2.3409 H         1 UNK         0.0888 
     74 H74        26.8362   19.1338   -0.9705 H         1 UNK         0.0888 
     75 H75        27.8045   21.0504   -0.3391 H         1 UNK         0.3017 
     76 H76        29.7025   22.4555   -2.0081 H         1 UNK         0.0873 
     77 H77        29.8854   22.1486    0.4974 H         1 UNK         0.0745 
     78 H78        28.5945   23.2953    0.7292 H         1 UNK         0.0745 
     79 H79        32.1617   22.6268    0.6205 H         1 UNK         0.0705 
     80 H80        32.9502   24.1689    0.4423 H         1 UNK         0.0705 
     81 H81        33.6310   25.2681    2.4242 H         1 UNK         0.1334 
     82 H82        31.6845   24.5100    6.1681 H         1 UNK         0.1417 
     83 H83        30.2696   22.6037    2.6133 H         1 UNK         0.1562 
     84 H84        29.7988   23.0436    6.3025 H         1 UNK         0.0748 
     85 H85        29.6304   21.8311    5.0540 H         1 UNK         0.0748 
     86 H86        29.1457   25.5046    5.8388 H         1 UNK         0.0940 
     87 H87        27.4870   25.8643    5.4342 H         1 UNK         0.0940 
     88 H88        29.8221   25.8106    3.4384 H         1 UNK         0.0703 
     89 H89        28.3817   25.7315    1.8011 H         1 UNK         0.3081 
     90 H90        25.7964   25.3117    1.1460 H         1 UNK         0.0719 
     91 H91        24.7819   28.2036    1.2117 H         1 UNK         0.0809 
     92 H92        24.1718   26.9304    0.1565 H         1 UNK         0.0809 
     93 H93        23.9760   26.8023    1.8970 H         1 UNK         0.0809 
     94 H94        27.0644   25.9146   -0.5499 H         1 UNK         0.2990 
     95 H95        28.1148   28.8400   -1.9975 H         1 UNK         0.0690 
     96 H96        30.5371   28.2607   -1.7744 H         1 UNK         0.0788 
     97 H97        30.1866   27.3131   -0.3271 H         1 UNK         0.0788 
     98 H98        29.9416   29.0469   -0.3260 H         1 UNK         0.0788 
     99 H99        29.0976   26.1165   -2.1740 H         1 UNK         0.2993 
    100 H100       26.4228   24.7791   -3.9634 H         1 UNK         0.0949 
    101 H101       28.0074   24.3781   -5.8348 H         1 UNK         0.0767 
    102 H102       27.4629   26.0465   -5.8559 H         1 UNK         0.0767 
    103 H103       29.0676   25.6615   -5.2488 H         1 UNK         0.0767 
    104 H104       29.0277   23.7563   -3.6183 H         1 UNK         0.3013 
    105 H105       29.0941   27.4300    6.0509 H         1 UNK         0.3121 
    106 H106       30.7016   29.6306    5.4256 H         1 UNK         0.0774 
    107 H107       30.1482   30.3317    7.7682 H         1 UNK         0.0815 
    108 H108       28.8487   29.1495    7.8230 H         1 UNK         0.0815 
    109 H109       30.5297   28.6248    7.6819 H         1 UNK         0.0815 
    110 H110       27.5122   29.3712    4.4756 H         1 UNK         0.2987 
    111 H111       26.5655   32.0697    4.7316 H         1 UNK         0.0949 
    112 H112       25.8927   29.8814    2.6884 H         1 UNK         0.0806 
    113 H113       25.0569   30.1479    4.2174 H         1 UNK         0.0806 
    114 H114       24.9701   31.3559    2.9438 H         1 UNK         0.0806 
    115 H115       28.7574   30.4469    2.4432 H         1 UNK         0.3010 
    116 H116       29.5810   33.0894    1.4547 H         1 UNK         0.0829 
    117 H117       27.7965   32.5191   -0.1624 H         1 UNK         0.0813 
    118 H118       29.3628   32.4595   -0.9508 H         1 UNK         0.0813 
    119 H119       28.5541   30.9677   -0.5003 H         1 UNK         0.0813 
    120 H120       30.4520   29.8006    2.2485 H         1 UNK         0.3038 
    121 H121       32.9501   29.8106    0.7878 H         1 UNK         0.0769 
    122 H122       33.4110   27.7805    2.1141 H         1 UNK         0.0811 
    123 H123       31.7590   27.7059    1.5308 H         1 UNK         0.0811 
    124 H124       32.0848   28.1369    3.2060 H         1 UNK         0.0811 
    125 H125       35.0492   29.6832    1.8985 H         1 UNK         0.3204 
    126 H126       35.7156   32.0171    3.2603 H         1 UNK         0.0748 
    127 H127       37.9755   30.9519    3.4627 H         1 UNK         0.0771 
    128 H128       37.2896   29.3941    3.0230 H         1 UNK         0.0771 
    129 H129       37.2999   30.7220    1.8604 H         1 UNK         0.0771 
    130 H130       34.5703   29.0602    4.6854 H         1 UNK         0.2980 
    131 H131       35.5006   29.6023    7.3735 H         1 UNK         0.0545 
    132 H132       32.9990   31.1617    5.5258 H         1 UNK         0.3459 
    133 H133       32.1513   31.7788    6.9234 H         1 UNK         0.3459 
    134 H134       33.9853   27.7234    8.0268 H         1 UNK         0.0616 
    135 H135       35.1689   27.3080    6.8286 H         1 UNK         0.0616 
    136 H136       34.2931   25.2864    5.8434 H         1 UNK         0.0634 
    137 H137       34.5185   26.2627    4.4068 H         1 UNK         0.0634 
@<TRIPOS>BOND
     1    1    2 1    
     2    1   72 1    
     3    1   73 1    
     4    1   74 1    
     5    2    3 2    
     6    2    4 am   BACKBONE|DICT|INTERRES
     7    4    5 1    
     8    4   75 1    
     9    5    6 1    
    10    5   35 1    
    11    5   76 1    
    12    6    7 1    
    13    6   77 1    
    14    6   78 1    
    15    7    8 1    
    16    8    9 1    
    17    8   79 1    
    18    8   80 1    
    19    9   10 ar   
    20    9   14 ar   
    21   10   11 ar   
    22   10   81 1    
    23   11   12 ar   
    24   11   71 1    
    25   12   13 ar   
    26   12   82 1    
    27   13   14 ar   
    28   13   15 1    
    29   14   83 1    
    30   15   16 1    
    31   15   84 1    
    32   15   85 1    
    33   16   17 1    
    34   17   18 1    
    35   17   86 1    
    36   17   87 1    
    37   18   19 1    
    38   18   37 1    
    39   18   88 1    
    40   19   20 am   BACKBONE|DICT|INTERRES
    41   19   89 1    
    42   20   21 2    
    43   20   22 1    
    44   22   23 1    
    45   22   24 1    
    46   22   90 1    
    47   23   91 1    
    48   23   92 1    
    49   23   93 1    
    50   24   25 am   BACKBONE|DICT|INTERRES
    51   24   94 1    
    52   25   26 2    
    53   25   27 1    
    54   27   28 1    
    55   27   29 1    
    56   27   95 1    
    57   28   96 1    
    58   28   97 1    
    59   28   98 1    
    60   29   30 am   BACKBONE|DICT|INTERRES
    61   29   99 1    
    62   30   31 2    
    63   30   32 1    
    64   32   33 1    
    65   32   34 1    
    66   32  100 1    
    67   33  101 1    
    68   33  102 1    
    69   33  103 1    
    70   34   35 am   BACKBONE|DICT|INTERRES
    71   34  104 1    
    72   35   36 2    
    73   37   38 2    
    74   37   39 am   BACKBONE|DICT|INTERRES
    75   39   40 1    
    76   39  105 1    
    77   40   41 1    
    78   40   42 1    
    79   40  106 1    
    80   41  107 1    
    81   41  108 1    
    82   41  109 1    
    83   42   43 2    
    84   42   44 am   BACKBONE|DICT|INTERRES
    85   44   45 1    
    86   44  110 1    
    87   45   46 1    
    88   45   47 1    
    89   45  111 1    
    90   46  112 1    
    91   46  113 1    
    92   46  114 1    
    93   47   48 2    
    94   47   49 am   BACKBONE|DICT|INTERRES
    95   49   50 1    
    96   49  115 1    
    97   50   51 1    
    98   50   52 1    
    99   50  116 1    
   100   51  117 1    
   101   51  118 1    
   102   51  119 1    
   103   52   53 2    
   104   52   54 am   BACKBONE|DICT|INTERRES
   105   54   55 1    
   106   54  120 1    
   107   55   56 1    
   108   55   57 1    
   109   55  121 1    
   110   56  122 1    
   111   56  123 1    
   112   56  124 1    
   113   57   58 2    
   114   57   59 am   BACKBONE|DICT|INTERRES
   115   59   60 1    
   116   59  125 1    
   117   60   61 1    
   118   60   62 1    
   119   60  126 1    
   120   61  127 1    
   121   61  128 1    
   122   61  129 1    
   123   62   63 2    
   124   62   64 am   BACKBONE|DICT|INTERRES
   125   64   65 1    
   126   64  130 1    
   127   65   66 1    
   128   65   69 1    
   129   65  131 1    
   130   66   67 am   BACKBONE|DICT|INTERRES
   131   66   68 2    
   132   67  132 1    
   133   67  133 1    
   134   69   70 1    
   135   69  134 1    
   136   69  135 1    
   137   70   71 1    
   138   71  136 1    
   139   71  137 1    
@<TRIPOS>SUBSTRUCTURE
     1 UNK         1 GROUP             0       ****    0 ROOT    
