@<TRIPOS>MOLECULE
3R136
137   139    1
SMALL
USER_CHARGES


@<TRIPOS>ATOM
      1 CA         32.2397   27.6693    2.2625 C.3       0 UNK        -0.1979 
      2 C          31.2317   26.7807    2.9740 C.2       0 UNK         0.4864 
      3 O          30.6306   27.2305    3.9476 O.2       0 UNK        -0.5359 
      4 N          31.0564   25.5243    2.5392 N.am      1 UNK        -0.4318 
      5 CA         30.1454   24.5830    3.1946 C.3       1 UNK         0.0824 
      6 C6         30.4835   23.0970    2.8931 C.3       12 UNK        -0.0944 
      7 S7         30.1210   22.5187    1.1955 S.3       12 UNK        -0.2672 
      8 C8         31.7727   22.0970    0.5650 C.3       12 UNK         0.0333 
      9 C9         32.6242   23.3381    0.3597 C.ar      12 UNK        -0.0807 
     10 C10        33.7213   23.5869    1.1872 C.ar      12 UNK        -0.0894 
     11 C11        34.5077   24.7247    0.9941 C.ar      12 UNK        -0.0804 
     12 C12        34.1889   25.6152   -0.0372 C.ar      12 UNK        -0.0824 
     13 C13        33.0787   25.3906   -0.8600 C.ar      12 UNK        -0.0762 
     14 C14        32.3128   24.2360   -0.6646 C.ar      12 UNK        -0.0782 
     15 C15        32.7466   26.3869   -1.9710 C.3       12 UNK         0.0230 
     16 S16        30.9581   26.6283   -2.2651 S.3       12 UNK        -0.2608 
     17 C17        30.4416   27.4988   -0.7490 C.3       12 UNK        -0.0989 
     18 CA         28.9534   27.9327   -0.7952 C.3       5 UNK         0.0716 
     19 N          28.0469   26.7895   -0.7234 N.am      5 UNK        -0.4135 
     20 C          27.2667   26.3632   -1.7216 C.2       4 UNK         0.5031 
     21 O          27.2641   26.8416   -2.8568 O.2       4 UNK        -0.5229 
     22 CA         26.2809   25.2370   -1.3778 C.3       4 UNK         0.0329 
     23 CB         26.9986   23.8779   -1.3217 C.3       4 UNK        -0.2001 
     24 N          25.5700   25.4741   -0.1184 N.am      4 UNK        -0.4303 
     25 C          24.7177   26.4861    0.1143 C.2       3 UNK         0.5044 
     26 O          24.4434   27.3512   -0.7177 O.2       3 UNK        -0.5152 
     27 CA         24.0332   26.5404    1.4942 C.3       3 UNK         0.0319 
     28 CB         22.5479   26.1621    1.3712 C.3       3 UNK        -0.2001 
     29 N          24.6691   25.6524    2.4670 N.am      3 UNK        -0.4354 
     30 C          25.7399   25.9682    3.2065 C.2       2 UNK         0.4964 
     31 O          26.2188   27.1016    3.2683 O.2       2 UNK        -0.5047 
     32 CA         26.3806   24.8185    4.0138 C.3       2 UNK         0.0288 
     33 CB         25.8672   23.4138    3.6169 C.3       2 UNK        -0.2113 
     34 N          27.8485   24.8073    3.9845 N.am      2 UNK        -0.4145 
     35 C          28.6628   24.9252    2.9223 C.2       1 UNK         0.5006 
     36 O          28.2967   25.2249    1.7793 O.2       1 UNK        -0.5103 
     37 C          28.5550   28.8890    0.3427 C.2       5 UNK         0.5055 
     38 O          29.3391   29.1208    1.2608 O.2       5 UNK        -0.5220 
     39 N          27.3191   29.4085    0.2732 N.am      6 UNK        -0.4450 
     40 CA         26.7282   30.3028    1.2766 C.3       6 UNK         0.0367 
     41 CB         25.2426   30.5248    0.9495 C.3       6 UNK        -0.1929 
     42 C          27.4376   31.6634    1.4048 C.2       6 UNK         0.5070 
     43 O          27.4400   32.2442    2.4912 O.2       6 UNK        -0.5237 
     44 N          28.0069   32.1586    0.2970 N.am      7 UNK        -0.4739 
     45 CA         28.7763   33.4013    0.2384 C.3       7 UNK         0.0276 
     46 CB         29.0014   33.7909   -1.2330 C.3       7 UNK        -0.1927 
     47 C          30.1080   33.2406    0.9896 C.2       7 UNK         0.5013 
     48 O          30.9876   32.5275    0.5028 O.2       7 UNK        -0.5193 
     49 N          30.2070   33.8868    2.1617 N.am      8 UNK        -0.4253 
     50 CA         31.3082   33.7994    3.1304 C.3       8 UNK         0.0242 
     51 CB         32.5996   34.4265    2.5603 C.3       8 UNK        -0.2000 
     52 C          31.5050   32.3588    3.6444 C.2       8 UNK         0.4948 
     53 O          32.6046   31.8098    3.5427 O.2       8 UNK        -0.5275 
     54 N          30.4126   31.7714    4.1564 N.am      9 UNK        -0.4246 
     55 CA         30.3443   30.3965    4.6579 C.3       9 UNK         0.0261 
     56 CB         28.9024   30.0793    5.0857 C.3       9 UNK        -0.1959 
     57 C          31.3271   30.1133    5.8103 C.2       9 UNK         0.5033 
     58 O          31.5284   30.9758    6.6702 O.2       9 UNK        -0.5390 
     59 N          31.8951   28.9034    5.8086 N.am      10 UNK        -0.4215 
     60 CA         32.9236   28.4079    6.7239 C.3       10 UNK         0.0240 
     61 CB         34.2375   29.2143    6.5674 C.3       10 UNK        -0.1982 
     62 C          33.0910   26.8978    6.4715 C.2       10 UNK         0.4970 
     63 O          32.0849   26.1934    6.3823 O.2       10 UNK        -0.4916 
     64 N          34.3409   26.4287    6.3484 N.am      11 UNK        -0.4279 
     65 CA         34.7317   25.0685    5.9276 C.3       11 UNK         0.1003 
     66 C          34.2589   23.9151    6.8667 C.2       11 UNK         0.5709 
     67 N          33.9417   24.1842    8.1275 N.am      11 UNK        -0.7358 
     68 O          34.2129   22.7545    6.4649 O.2       11 UNK        -0.4999 
     69 C69        34.4203   24.8052    4.4240 C.3       12 UNK        -0.0954 
     70 S70        35.2610   26.0062    3.3325 S.3       12 UNK        -0.2268 
     71 C71        35.7075   24.9865    1.8929 C.3       12 UNK         0.0203 
     72 H72        31.7726   28.5999    1.9446 H         1 UNK         0.0888 
     73 H73        33.0561   27.9238    2.9369 H         1 UNK         0.0888 
     74 H74        32.6585   27.1883    1.3850 H         1 UNK         0.0888 
     75 H75        31.5472   25.1769    1.7262 H         1 UNK         0.3017 
     76 H76        30.3110   24.7063    4.2682 H         1 UNK         0.0873 
     77 H77        29.9214   22.4552    3.5739 H         1 UNK         0.0745 
     78 H78        31.5316   22.9073    3.1287 H         1 UNK         0.0745 
     79 H79        31.6640   21.5753   -0.3869 H         1 UNK         0.0705 
     80 H80        32.2542   21.3938    1.2465 H         1 UNK         0.0705 
     81 H81        33.9660   22.8939    1.9805 H         1 UNK         0.1334 
     82 H82        34.8000   26.4952   -0.1869 H         1 UNK         0.1417 
     83 H83        31.4627   24.0347   -1.3025 H         1 UNK         0.1562 
     84 H84        33.2024   26.0307   -2.8955 H         1 UNK         0.0748 
     85 H85        33.1968   27.3584   -1.7607 H         1 UNK         0.0748 
     86 H86        31.0939   28.3643   -0.6165 H         1 UNK         0.0940 
     87 H87        30.6107   26.8381    0.0996 H         1 UNK         0.0940 
     88 H88        28.7970   28.4902   -1.7213 H         1 UNK         0.0703 
     89 H89        27.9930   26.3215    0.1794 H         1 UNK         0.3081 
     90 H90        25.5353   25.1946   -2.1746 H         1 UNK         0.0719 
     91 H91        27.5236   23.6762   -2.2564 H         1 UNK         0.0809 
     92 H92        27.7382   23.8405   -0.5207 H         1 UNK         0.0809 
     93 H93        26.2933   23.0618   -1.1646 H         1 UNK         0.0809 
     94 H94        25.7733   24.8389    0.6387 H         1 UNK         0.2990 
     95 H95        24.0913   27.5674    1.8577 H         1 UNK         0.0690 
     96 H96        22.0384   26.2382    2.3320 H         1 UNK         0.0788 
     97 H97        22.4178   25.1444    1.0007 H         1 UNK         0.0788 
     98 H98        22.0314   26.8291    0.6794 H         1 UNK         0.0788 
     99 H99        24.3235   24.7039    2.5075 H         1 UNK         0.2993 
    100 H100       26.0972   24.9954    5.0525 H         1 UNK         0.0949 
    101 H101       26.0838   23.1814    2.5730 H         1 UNK         0.0767 
    102 H102       26.3388   22.6411    4.2247 H         1 UNK         0.0767 
    103 H103       24.7922   23.3147    3.7728 H         1 UNK         0.0767 
    104 H104       28.2821   24.6256    4.8786 H         1 UNK         0.3013 
    105 H105       26.7263   29.1420   -0.5009 H         1 UNK         0.3121 
    106 H106       26.7963   29.8012    2.2444 H         1 UNK         0.0774 
    107 H107       24.7666   31.1499    1.7065 H         1 UNK         0.0815 
    108 H108       25.1101   31.0209   -0.0128 H         1 UNK         0.0815 
    109 H109       24.6935   29.5861    0.9180 H         1 UNK         0.0815 
    110 H110       27.9782   31.6012   -0.5437 H         1 UNK         0.2987 
    111 H111       28.1904   34.1933    0.7105 H         1 UNK         0.0949 
    112 H112       28.0556   33.9575   -1.7488 H         1 UNK         0.0806 
    113 H113       29.5770   34.7146   -1.3063 H         1 UNK         0.0806 
    114 H114       29.5502   33.0218   -1.7783 H         1 UNK         0.0806 
    115 H115       29.4033   34.4172    2.4703 H         1 UNK         0.3010 
    116 H116       31.0114   34.3953    3.9951 H         1 UNK         0.0829 
    117 H117       32.4330   35.4541    2.2375 H         1 UNK         0.0813 
    118 H118       33.3867   34.4472    3.3150 H         1 UNK         0.0813 
    119 H119       32.9842   33.8653    1.7082 H         1 UNK         0.0813 
    120 H120       29.5473   32.2924    4.1668 H         1 UNK         0.3038 
    121 H121       30.6015   29.7585    3.8122 H         1 UNK         0.0769 
    122 H122       28.8174   29.0463    5.4267 H         1 UNK         0.0811 
    123 H123       28.2080   30.1968    4.2543 H         1 UNK         0.0811 
    124 H124       28.5708   30.7241    5.9004 H         1 UNK         0.0811 
    125 H125       31.5453   28.2138    5.1381 H         1 UNK         0.3204 
    126 H126       32.5558   28.5250    7.7447 H         1 UNK         0.0748 
    127 H127       35.0007   28.8784    7.2704 H         1 UNK         0.0771 
    128 H128       34.6446   29.1311    5.5584 H         1 UNK         0.0771 
    129 H129       34.0851   30.2743    6.7690 H         1 UNK         0.0771 
    130 H130       35.1041   27.0798    6.4583 H         1 UNK         0.2980 
    131 H131       35.8173   25.0461    6.0277 H         1 UNK         0.0545 
    132 H132       33.6478   23.4347    8.7335 H         1 UNK         0.3459 
    133 H133       33.9785   25.1297    8.4725 H         1 UNK         0.3459 
    134 H134       34.7443   23.8029    4.1412 H         1 UNK         0.0616 
    135 H135       33.3468   24.8445    4.2361 H         1 UNK         0.0616 
    136 H136       36.4823   25.5060    1.3272 H         1 UNK         0.0634 
    137 H137       36.1548   24.0483    2.2246 H         1 UNK         0.0634 
@<TRIPOS>BOND
     1    1    2 1    
     2    1   72 1    
     3    1   73 1    
     4    1   74 1    
     5    2    3 2    
     6    2    4 am   BACKBONE|DICT|INTERRES
     7    4    5 1    
     8    4   75 1    
     9    5    6 1    
    10    5   35 1    
    11    5   76 1    
    12    6    7 1    
    13    6   77 1    
    14    6   78 1    
    15    7    8 1    
    16    8    9 1    
    17    8   79 1    
    18    8   80 1    
    19    9   10 ar   
    20    9   14 ar   
    21   10   11 ar   
    22   10   81 1    
    23   11   12 ar   
    24   11   71 1    
    25   12   13 ar   
    26   12   82 1    
    27   13   14 ar   
    28   13   15 1    
    29   14   83 1    
    30   15   16 1    
    31   15   84 1    
    32   15   85 1    
    33   16   17 1    
    34   17   18 1    
    35   17   86 1    
    36   17   87 1    
    37   18   19 1    
    38   18   37 1    
    39   18   88 1    
    40   19   20 am   BACKBONE|DICT|INTERRES
    41   19   89 1    
    42   20   21 2    
    43   20   22 1    
    44   22   23 1    
    45   22   24 1    
    46   22   90 1    
    47   23   91 1    
    48   23   92 1    
    49   23   93 1    
    50   24   25 am   BACKBONE|DICT|INTERRES
    51   24   94 1    
    52   25   26 2    
    53   25   27 1    
    54   27   28 1    
    55   27   29 1    
    56   27   95 1    
    57   28   96 1    
    58   28   97 1    
    59   28   98 1    
    60   29   30 am   BACKBONE|DICT|INTERRES
    61   29   99 1    
    62   30   31 2    
    63   30   32 1    
    64   32   33 1    
    65   32   34 1    
    66   32  100 1    
    67   33  101 1    
    68   33  102 1    
    69   33  103 1    
    70   34   35 am   BACKBONE|DICT|INTERRES
    71   34  104 1    
    72   35   36 2    
    73   37   38 2    
    74   37   39 am   BACKBONE|DICT|INTERRES
    75   39   40 1    
    76   39  105 1    
    77   40   41 1    
    78   40   42 1    
    79   40  106 1    
    80   41  107 1    
    81   41  108 1    
    82   41  109 1    
    83   42   43 2    
    84   42   44 am   BACKBONE|DICT|INTERRES
    85   44   45 1    
    86   44  110 1    
    87   45   46 1    
    88   45   47 1    
    89   45  111 1    
    90   46  112 1    
    91   46  113 1    
    92   46  114 1    
    93   47   48 2    
    94   47   49 am   BACKBONE|DICT|INTERRES
    95   49   50 1    
    96   49  115 1    
    97   50   51 1    
    98   50   52 1    
    99   50  116 1    
   100   51  117 1    
   101   51  118 1    
   102   51  119 1    
   103   52   53 2    
   104   52   54 am   BACKBONE|DICT|INTERRES
   105   54   55 1    
   106   54  120 1    
   107   55   56 1    
   108   55   57 1    
   109   55  121 1    
   110   56  122 1    
   111   56  123 1    
   112   56  124 1    
   113   57   58 2    
   114   57   59 am   BACKBONE|DICT|INTERRES
   115   59   60 1    
   116   59  125 1    
   117   60   61 1    
   118   60   62 1    
   119   60  126 1    
   120   61  127 1    
   121   61  128 1    
   122   61  129 1    
   123   62   63 2    
   124   62   64 am   BACKBONE|DICT|INTERRES
   125   64   65 1    
   126   64  130 1    
   127   65   66 1    
   128   65   69 1    
   129   65  131 1    
   130   66   67 am   BACKBONE|DICT|INTERRES
   131   66   68 2    
   132   67  132 1    
   133   67  133 1    
   134   69   70 1    
   135   69  134 1    
   136   69  135 1    
   137   70   71 1    
   138   71  136 1    
   139   71  137 1    
@<TRIPOS>SUBSTRUCTURE
     1 UNK         1 GROUP             0       ****    0 ROOT    
