@<TRIPOS>MOLECULE
3R136
137   139    1
SMALL
USER_CHARGES


@<TRIPOS>ATOM
      1 CA         34.4330   25.9943    1.2103 C.3       0 UNK        -0.1979 
      2 C          33.5257   25.3229    0.1899 C.2       0 UNK         0.4864 
      3 O          33.7262   25.4988   -1.0121 O.2       0 UNK        -0.5359 
      4 N          32.5249   24.5699    0.6700 N.am      1 UNK        -0.4318 
      5 CA         31.5303   23.8168   -0.1144 C.3       1 UNK         0.0824 
      6 C6         32.1281   22.6464   -0.9526 C.3       12 UNK        -0.0944 
      7 S7         33.3892   21.6347   -0.0984 S.3       12 UNK        -0.2672 
      8 C8         32.3914   20.6008    1.0244 C.3       12 UNK         0.0333 
      9 C9         31.8288   21.3809    2.2082 C.ar      12 UNK        -0.0807 
     10 C10        32.6577   22.1979    2.9856 C.ar      12 UNK        -0.0894 
     11 C11        32.1444   22.9341    4.0573 C.ar      12 UNK        -0.0804 
     12 C12        30.7865   22.8022    4.3791 C.ar      12 UNK        -0.0824 
     13 C13        29.9473   21.9849    3.6169 C.ar      12 UNK        -0.0762 
     14 C14        30.4730   21.2796    2.5312 C.ar      12 UNK        -0.0782 
     15 C15        28.4741   21.8464    3.9701 C.3       12 UNK         0.0230 
     16 S16        27.4478   23.0362    3.0522 S.3       12 UNK        -0.2608 
     17 C17        27.4856   24.4950    4.1516 C.3       12 UNK        -0.0989 
     18 CA         27.4311   25.8400    3.3747 C.3       5 UNK         0.0716 
     19 N          26.2906   25.9350    2.4562 N.am      5 UNK        -0.4135 
     20 C          24.9932   26.0306    2.7899 C.2       4 UNK         0.5031 
     21 O          24.5760   25.9041    3.9425 O.2       4 UNK        -0.5229 
     22 CA         23.9841   26.3507    1.6641 C.3       4 UNK         0.0329 
     23 CB         22.9210   27.3694    2.1285 C.3       4 UNK        -0.2001 
     24 N          24.5861   26.7932    0.3972 N.am      4 UNK        -0.4303 
     25 C          25.3854   27.8512    0.1922 C.2       3 UNK         0.5044 
     26 O          25.7519   28.6322    1.0740 O.2       3 UNK        -0.5152 
     27 CA         25.9156   28.0132   -1.2434 C.3       3 UNK         0.0319 
     28 CB         25.4753   29.3637   -1.8324 C.3       3 UNK        -0.2001 
     29 N          27.3750   27.8908   -1.3500 N.am      3 UNK        -0.4354 
     30 C          28.1499   26.9398   -0.8044 C.2       2 UNK         0.4964 
     31 O          27.7275   26.0340   -0.0802 O.2       2 UNK        -0.5047 
     32 CA         29.6496   27.0246   -1.1430 C.3       2 UNK         0.0288 
     33 CB         30.2591   28.3733   -0.7301 C.3       2 UNK        -0.2113 
     34 N          30.4184   25.9731   -0.4837 N.am      2 UNK        -0.4145 
     35 C          30.6125   24.7353   -0.9566 C.2       1 UNK         0.5006 
     36 O          30.1197   24.3238   -2.0100 O.2       1 UNK        -0.5103 
     37 C          27.5169   27.0732    4.3098 C.2       5 UNK         0.5055 
     38 O          27.9721   26.9423    5.4481 O.2       5 UNK        -0.5220 
     39 N          27.0611   28.2431    3.8345 N.am      6 UNK        -0.4450 
     40 CA         26.9424   29.4683    4.6256 C.3       6 UNK         0.0367 
     41 CB         25.6296   29.4378    5.4356 C.3       6 UNK        -0.1929 
     42 C          27.0688   30.7187    3.7408 C.2       6 UNK         0.5070 
     43 O          26.3949   31.7192    3.9945 O.2       6 UNK        -0.5237 
     44 N          27.9266   30.6485    2.7159 N.am      7 UNK        -0.4739 
     45 CA         28.2404   31.7713    1.8276 C.3       7 UNK         0.0276 
     46 CB         28.5731   31.2139    0.4344 C.3       7 UNK        -0.1927 
     47 C          29.4205   32.5901    2.3798 C.2       7 UNK         0.5013 
     48 O          29.9547   32.2696    3.4447 O.2       7 UNK        -0.5193 
     49 N          29.8498   33.6057    1.6191 N.am      8 UNK        -0.4253 
     50 CA         31.0921   34.3498    1.8455 C.3       8 UNK         0.0242 
     51 CB         30.9999   35.7108    1.1303 C.3       8 UNK        -0.2000 
     52 C          32.3007   33.5150    1.3756 C.2       8 UNK         0.4948 
     53 O          32.8624   33.7794    0.3107 O.2       8 UNK        -0.5275 
     54 N          32.6385   32.4879    2.1591 N.am      9 UNK        -0.4246 
     55 CA         33.6709   31.4885    1.8989 C.3       9 UNK         0.0261 
     56 CB         33.0995   30.4045    0.9583 C.3       9 UNK        -0.1959 
     57 C          34.1321   30.9037    3.2440 C.2       9 UNK         0.5033 
     58 O          33.7084   31.3882    4.2973 O.2       9 UNK        -0.5390 
     59 N          34.9683   29.8542    3.1969 N.am      10 UNK        -0.4215 
     60 CA         35.4003   29.0791    4.3711 C.3       10 UNK         0.0240 
     61 CB         36.4562   28.0436    3.9510 C.3       10 UNK        -0.1982 
     62 C          34.2328   28.3982    5.1143 C.2       10 UNK         0.4970 
     63 O          34.2732   28.3001    6.3410 O.2       10 UNK        -0.4916 
     64 N          33.2062   27.9980    4.3558 N.am      11 UNK        -0.4279 
     65 CA         31.8638   27.6764    4.8430 C.3       11 UNK         0.1003 
     66 C          30.8969   28.6603    4.1412 C.2       11 UNK         0.5709 
     67 N          30.7167   29.8420    4.7132 N.am      11 UNK        -0.7358 
     68 O          30.3615   28.3860    3.0690 O.2       11 UNK        -0.4999 
     69 C69        31.4984   26.1848    4.6287 C.3       12 UNK        -0.0954 
     70 S70        32.3101   25.1218    5.8699 S.3       12 UNK        -0.2268 
     71 C71        33.0998   23.8356    4.8436 C.3       12 UNK         0.0203 
     72 H72        34.4821   27.0657    1.0189 H         1 UNK         0.0888 
     73 H73        34.0815   25.8465    2.2308 H         1 UNK         0.0888 
     74 H74        35.4417   25.5883    1.1361 H         1 UNK         0.0888 
     75 H75        32.4416   24.4476    1.6689 H         1 UNK         0.3017 
     76 H76        30.8579   23.3763    0.6212 H         1 UNK         0.0873 
     77 H77        31.3323   21.9848   -1.2997 H         1 UNK         0.0745 
     78 H78        32.6021   23.0409   -1.8533 H         1 UNK         0.0745 
     79 H79        33.0210   19.7974    1.4090 H         1 UNK         0.0705 
     80 H80        31.5954   20.1217    0.4523 H         1 UNK         0.0705 
     81 H81        33.7090   22.2725    2.7412 H         1 UNK         0.1334 
     82 H82        30.3727   23.3321    5.2242 H         1 UNK         0.1417 
     83 H83        29.8227   20.6488    1.9399 H         1 UNK         0.1562 
     84 H84        28.3192   21.9669    5.0436 H         1 UNK         0.0748 
     85 H85        28.1343   20.8375    3.7307 H         1 UNK         0.0748 
     86 H86        28.3903   24.4549    4.7583 H         1 UNK         0.0940 
     87 H87        26.6515   24.4197    4.8513 H         1 UNK         0.0940 
     88 H88        28.3220   25.8915    2.7465 H         1 UNK         0.0703 
     89 H89        26.5484   26.0160    1.4764 H         1 UNK         0.3081 
     90 H90        23.4730   25.4120    1.4459 H         1 UNK         0.0719 
     91 H91        23.3730   28.3157    2.4282 H         1 UNK         0.0809 
     92 H92        22.1984   27.5776    1.3395 H         1 UNK         0.0809 
     93 H93        22.3607   26.9924    2.9850 H         1 UNK         0.0809 
     94 H94        24.3922   26.1960   -0.3953 H         1 UNK         0.2990 
     95 H95        25.4885   27.2235   -1.8647 H         1 UNK         0.0690 
     96 H96        25.7700   29.4594   -2.8776 H         1 UNK         0.0788 
     97 H97        25.9033   30.2034   -1.2835 H         1 UNK         0.0788 
     98 H98        24.3904   29.4709   -1.7928 H         1 UNK         0.0788 
     99 H99        27.8266   28.5925   -1.9175 H         1 UNK         0.2993 
    100 H100       29.7527   26.9131   -2.2248 H         1 UNK         0.0949 
    101 H101       30.1102   28.5666    0.3329 H         1 UNK         0.0767 
    102 H102       31.3318   28.3992   -0.9249 H         1 UNK         0.0767 
    103 H103       29.8190   29.1966   -1.2923 H         1 UNK         0.0767 
    104 H104       30.8270   26.2107    0.4071 H         1 UNK         0.3013 
    105 H105       26.6985   28.2945    2.8852 H         1 UNK         0.3121 
    106 H106       27.7769   29.5191    5.3282 H         1 UNK         0.0774 
    107 H107       25.5348   30.3207    6.0688 H         1 UNK         0.0815 
    108 H108       24.7586   29.4063    4.7799 H         1 UNK         0.0815 
    109 H109       25.5853   28.5679    6.0909 H         1 UNK         0.0815 
    110 H110       28.4913   29.8146    2.6136 H         1 UNK         0.2987 
    111 H111       27.3710   32.4273    1.7439 H         1 UNK         0.0949 
    112 H112       29.5874   30.8176    0.4045 H         1 UNK         0.0806 
    113 H113       27.8859   30.4192    0.1445 H         1 UNK         0.0806 
    114 H114       28.5073   31.9902   -0.3284 H         1 UNK         0.0806 
    115 H115       29.3736   33.7911    0.7482 H         1 UNK         0.3010 
    116 H116       31.2090   34.5409    2.9148 H         1 UNK         0.0829 
    117 H117       30.1739   36.3070    1.5186 H         1 UNK         0.0813 
    118 H118       31.9129   36.2895    1.2769 H         1 UNK         0.0813 
    119 H119       30.8550   35.5974    0.0551 H         1 UNK         0.0813 
    120 H120       32.1365   32.3517    3.0318 H         1 UNK         0.3038 
    121 H121       34.5308   31.9710    1.4299 H         1 UNK         0.0769 
    122 H122       32.2712   29.8669    1.4222 H         1 UNK         0.0811 
    123 H123       33.8553   29.6716    0.6762 H         1 UNK         0.0811 
    124 H124       32.7272   30.8412    0.0313 H         1 UNK         0.0811 
    125 H125       35.3126   29.5466    2.2989 H         1 UNK         0.3204 
    126 H126       35.8672   29.7761    5.0703 H         1 UNK         0.0748 
    127 H127       36.8098   27.4772    4.8139 H         1 UNK         0.0771 
    128 H128       36.0607   27.3259    3.2326 H         1 UNK         0.0771 
    129 H129       37.3270   28.5231    3.5033 H         1 UNK         0.0771 
    130 H130       33.2652   28.1597    3.3625 H         1 UNK         0.2980 
    131 H131       31.7906   27.8842    5.9130 H         1 UNK         0.0545 
    132 H132       30.1938   30.5679    4.2342 H         1 UNK         0.3459 
    133 H133       31.2065   30.0768    5.5616 H         1 UNK         0.3459 
    134 H134       31.7526   25.8610    3.6185 H         1 UNK         0.0616 
    135 H135       30.4244   26.0323    4.7364 H         1 UNK         0.0616 
    136 H136       33.7956   24.3248    4.1609 H         1 UNK         0.0634 
    137 H137       33.7031   23.2048    5.4974 H         1 UNK         0.0634 
@<TRIPOS>BOND
     1    1    2 1    
     2    1   72 1    
     3    1   73 1    
     4    1   74 1    
     5    2    3 2    
     6    2    4 am   BACKBONE|DICT|INTERRES
     7    4    5 1    
     8    4   75 1    
     9    5    6 1    
    10    5   35 1    
    11    5   76 1    
    12    6    7 1    
    13    6   77 1    
    14    6   78 1    
    15    7    8 1    
    16    8    9 1    
    17    8   79 1    
    18    8   80 1    
    19    9   10 ar   
    20    9   14 ar   
    21   10   11 ar   
    22   10   81 1    
    23   11   12 ar   
    24   11   71 1    
    25   12   13 ar   
    26   12   82 1    
    27   13   14 ar   
    28   13   15 1    
    29   14   83 1    
    30   15   16 1    
    31   15   84 1    
    32   15   85 1    
    33   16   17 1    
    34   17   18 1    
    35   17   86 1    
    36   17   87 1    
    37   18   19 1    
    38   18   37 1    
    39   18   88 1    
    40   19   20 am   BACKBONE|DICT|INTERRES
    41   19   89 1    
    42   20   21 2    
    43   20   22 1    
    44   22   23 1    
    45   22   24 1    
    46   22   90 1    
    47   23   91 1    
    48   23   92 1    
    49   23   93 1    
    50   24   25 am   BACKBONE|DICT|INTERRES
    51   24   94 1    
    52   25   26 2    
    53   25   27 1    
    54   27   28 1    
    55   27   29 1    
    56   27   95 1    
    57   28   96 1    
    58   28   97 1    
    59   28   98 1    
    60   29   30 am   BACKBONE|DICT|INTERRES
    61   29   99 1    
    62   30   31 2    
    63   30   32 1    
    64   32   33 1    
    65   32   34 1    
    66   32  100 1    
    67   33  101 1    
    68   33  102 1    
    69   33  103 1    
    70   34   35 am   BACKBONE|DICT|INTERRES
    71   34  104 1    
    72   35   36 2    
    73   37   38 2    
    74   37   39 am   BACKBONE|DICT|INTERRES
    75   39   40 1    
    76   39  105 1    
    77   40   41 1    
    78   40   42 1    
    79   40  106 1    
    80   41  107 1    
    81   41  108 1    
    82   41  109 1    
    83   42   43 2    
    84   42   44 am   BACKBONE|DICT|INTERRES
    85   44   45 1    
    86   44  110 1    
    87   45   46 1    
    88   45   47 1    
    89   45  111 1    
    90   46  112 1    
    91   46  113 1    
    92   46  114 1    
    93   47   48 2    
    94   47   49 am   BACKBONE|DICT|INTERRES
    95   49   50 1    
    96   49  115 1    
    97   50   51 1    
    98   50   52 1    
    99   50  116 1    
   100   51  117 1    
   101   51  118 1    
   102   51  119 1    
   103   52   53 2    
   104   52   54 am   BACKBONE|DICT|INTERRES
   105   54   55 1    
   106   54  120 1    
   107   55   56 1    
   108   55   57 1    
   109   55  121 1    
   110   56  122 1    
   111   56  123 1    
   112   56  124 1    
   113   57   58 2    
   114   57   59 am   BACKBONE|DICT|INTERRES
   115   59   60 1    
   116   59  125 1    
   117   60   61 1    
   118   60   62 1    
   119   60  126 1    
   120   61  127 1    
   121   61  128 1    
   122   61  129 1    
   123   62   63 2    
   124   62   64 am   BACKBONE|DICT|INTERRES
   125   64   65 1    
   126   64  130 1    
   127   65   66 1    
   128   65   69 1    
   129   65  131 1    
   130   66   67 am   BACKBONE|DICT|INTERRES
   131   66   68 2    
   132   67  132 1    
   133   67  133 1    
   134   69   70 1    
   135   69  134 1    
   136   69  135 1    
   137   70   71 1    
   138   71  136 1    
   139   71  137 1    
@<TRIPOS>SUBSTRUCTURE
     1 UNK         1 GROUP             0       ****    0 ROOT    
