@<TRIPOS>MOLECULE
3R136
137   139    1
SMALL
USER_CHARGES


@<TRIPOS>ATOM
      1 CA         30.6242   27.6962   -0.9578 C.3       0 UNK        -0.1979 
      2 C          29.8141   26.4987   -0.4851 C.2       0 UNK         0.4864 
      3 O          28.6110   26.6249   -0.2523 O.2       0 UNK        -0.5359 
      4 N          30.4602   25.3304   -0.3668 N.am      1 UNK        -0.4318 
      5 CA         29.8815   24.0641    0.1041 C.3       1 UNK         0.0824 
      6 C6         30.9154   22.9041    0.1118 C.3       12 UNK        -0.0944 
      7 S7         32.5458   23.3621    0.7945 S.3       12 UNK        -0.2672 
      8 C8         32.4532   22.6914    2.4817 C.3       12 UNK         0.0333 
      9 C9         31.4807   23.4741    3.3503 C.ar      12 UNK        -0.0807 
     10 C10        31.7588   24.8010    3.6901 C.ar      12 UNK        -0.0894 
     11 C11        30.8920   25.5202    4.5169 C.ar      12 UNK        -0.0804 
     12 C12        29.7375   24.9014    5.0038 C.ar      12 UNK        -0.0824 
     13 C13        29.4363   23.5805    4.6527 C.ar      12 UNK        -0.0762 
     14 C14        30.3133   22.8712    3.8270 C.ar      12 UNK        -0.0782 
     15 C15        28.1717   22.9098    5.1709 C.3       12 UNK         0.0230 
     16 S16        26.7949   23.0435    3.9839 S.3       12 UNK        -0.2608 
     17 C17        26.4048   24.8213    4.0901 C.3       12 UNK        -0.0989 
     18 CA         26.7996   25.5818    2.7913 C.3       5 UNK         0.0716 
     19 N          25.9414   25.2393    1.6495 N.am      5 UNK        -0.4135 
     20 C          24.6329   25.5185    1.5338 C.2       4 UNK         0.5031 
     21 O          23.9726   26.1082    2.3921 O.2       4 UNK        -0.5229 
     22 CA         23.9465   25.0507    0.2360 C.3       4 UNK         0.0329 
     23 CB         22.4836   25.5297    0.1153 C.3       4 UNK        -0.2001 
     24 N          24.7051   25.4085   -0.9653 N.am      4 UNK        -0.4303 
     25 C          25.0814   26.6304   -1.3739 C.2       3 UNK         0.5044 
     26 O          24.7903   27.6728   -0.7860 O.2       3 UNK        -0.5152 
     27 CA         25.9349   26.6851   -2.6583 C.3       3 UNK         0.0319 
     28 CB         26.6757   28.0255   -2.8240 C.3       3 UNK        -0.2001 
     29 N          26.9104   25.5917   -2.7019 N.am      3 UNK        -0.4354 
     30 C          26.6685   24.3573   -3.1666 C.2       2 UNK         0.4964 
     31 O          25.5900   24.0199   -3.6543 O.2       2 UNK        -0.5047 
     32 CA         27.7833   23.3055   -3.0340 C.3       2 UNK         0.0288 
     33 CB         28.4599   23.0669   -4.3939 C.3       2 UNK        -0.2113 
     34 N          28.8089   23.6436   -2.0453 N.am      2 UNK        -0.4145 
     35 C          28.6389   23.6567   -0.7141 C.2       1 UNK         0.5006 
     36 O          27.5697   23.4196   -0.1474 O.2       1 UNK        -0.5103 
     37 C          26.8913   27.1104    2.9971 C.2       5 UNK         0.5055 
     38 O          26.6160   27.6070    4.0926 O.2       5 UNK        -0.5220 
     39 N          27.2807   27.8366    1.9407 N.am      6 UNK        -0.4450 
     40 CA         27.6059   29.2607    2.0138 C.3       6 UNK         0.0367 
     41 CB         27.6044   29.8643    0.6008 C.3       6 UNK        -0.1929 
     42 C          28.9763   29.4345    2.6861 C.2       6 UNK         0.5070 
     43 O          29.9020   28.6895    2.3628 O.2       6 UNK        -0.5237 
     44 N          29.0727   30.3930    3.6131 N.am      7 UNK        -0.4739 
     45 CA         30.2762   30.6657    4.3977 C.3       7 UNK         0.0276 
     46 CB         29.8823   30.8487    5.8780 C.3       7 UNK        -0.1927 
     47 C          31.0476   31.8489    3.7905 C.2       7 UNK         0.5013 
     48 O          31.5614   31.7218    2.6765 O.2       7 UNK        -0.5193 
     49 N          31.1343   32.9671    4.5278 N.am      8 UNK        -0.4253 
     50 CA         31.9032   34.1775    4.2188 C.3       8 UNK         0.0242 
     51 CB         31.3178   34.9185    2.9941 C.3       8 UNK        -0.2000 
     52 C          33.4035   33.8554    4.1010 C.2       8 UNK         0.4948 
     53 O          34.0724   33.7399    5.1287 O.2       8 UNK        -0.5275 
     54 N          33.8973   33.6958    2.8668 N.am      9 UNK        -0.4246 
     55 CA         35.2643   33.2668    2.5707 C.3       9 UNK         0.0261 
     56 CB         35.6023   33.6288    1.1152 C.3       9 UNK        -0.1959 
     57 C          35.4957   31.7640    2.8181 C.2       9 UNK         0.5033 
     58 O          36.6351   31.3767    3.0832 O.2       9 UNK        -0.5390 
     59 N          34.4405   30.9435    2.7149 N.am      10 UNK        -0.4215 
     60 CA         34.5005   29.4982    2.9349 C.3       10 UNK         0.0240 
     61 CB         33.4674   28.8090    2.0293 C.3       10 UNK        -0.1982 
     62 C          34.2400   29.1594    4.4103 C.2       10 UNK         0.4970 
     63 O          33.4771   29.8639    5.0719 O.2       10 UNK        -0.4916 
     64 N          34.8688   28.0702    4.8710 N.am      11 UNK        -0.4279 
     65 CA         34.7664   27.4446    6.2047 C.3       11 UNK         0.1003 
     66 C          35.0058   28.3460    7.4573 C.2       11 UNK         0.5709 
     67 N          35.5493   29.5484    7.3172 N.am      11 UNK        -0.7358 
     68 O          34.7510   27.9275    8.5845 O.2       11 UNK        -0.4999 
     69 C69        33.5670   26.4577    6.3281 C.3       12 UNK        -0.0954 
     70 S70        31.9089   27.2056    6.5047 S.3       12 UNK        -0.2268 
     71 C71        31.1811   26.9767    4.8512 C.3       12 UNK         0.0203 
     72 H72        31.6218   27.4079   -1.2880 H         1 UNK         0.0888 
     73 H73        30.1197   28.1862   -1.7899 H         1 UNK         0.0888 
     74 H74        30.7312   28.4190   -0.1499 H         1 UNK         0.0888 
     75 H75        31.4535   25.2952   -0.5493 H         1 UNK         0.3017 
     76 H76        29.5558   24.2332    1.1323 H         1 UNK         0.0873 
     77 H77        30.5178   22.0496    0.6627 H         1 UNK         0.0745 
     78 H78        31.1015   22.5419   -0.9013 H         1 UNK         0.0745 
     79 H79        33.4457   22.7383    2.9322 H         1 UNK         0.0705 
     80 H80        32.1868   21.6341    2.4401 H         1 UNK         0.0705 
     81 H81        32.6522   25.2735    3.3053 H         1 UNK         0.1334 
     82 H82        29.0730   25.4573    5.6502 H         1 UNK         0.1417 
     83 H83        30.0864   21.8476    3.5607 H         1 UNK         0.1562 
     84 H84        27.8751   23.3359    6.1307 H         1 UNK         0.0748 
     85 H85        28.3684   21.8534    5.3604 H         1 UNK         0.0748 
     86 H86        26.9092   25.2358    4.9626 H         1 UNK         0.0940 
     87 H87        25.3412   24.9335    4.3035 H         1 UNK         0.0940 
     88 H88        27.8094   25.2714    2.5181 H         1 UNK         0.0703 
     89 H89        26.4000   24.7337    0.8981 H         1 UNK         0.3081 
     90 H90        23.9331   23.9605    0.2771 H         1 UNK         0.0719 
     91 H91        22.4134   26.6180    0.1055 H         1 UNK         0.0809 
     92 H92        22.0172   25.1553   -0.7958 H         1 UNK         0.0809 
     93 H93        21.8852   25.1732    0.9546 H         1 UNK         0.0809 
     94 H94        24.9923   24.6310   -1.5456 H         1 UNK         0.2990 
     95 H95        25.2460   26.5859   -3.4998 H         1 UNK         0.0690 
     96 H96        27.2618   28.0443   -3.7427 H         1 UNK         0.0788 
     97 H97        27.3511   28.2180   -1.9909 H         1 UNK         0.0788 
     98 H98        25.9734   28.8586   -2.8726 H         1 UNK         0.0788 
     99 H99        27.7857   25.7670   -2.2263 H         1 UNK         0.2993 
    100 H100       27.3087   22.3737   -2.7182 H         1 UNK         0.0949 
    101 H101       28.9664   23.9626   -4.7561 H         1 UNK         0.0767 
    102 H102       29.1951   22.2638   -4.3366 H         1 UNK         0.0767 
    103 H103       27.7277   22.7786   -5.1497 H         1 UNK         0.0767 
    104 H104       29.7192   23.8867   -2.4088 H         1 UNK         0.3013 
    105 H105       27.5846   27.3540    1.0958 H         1 UNK         0.3121 
    106 H106       26.8403   29.7667    2.6059 H         1 UNK         0.0774 
    107 H107       27.7983   30.9369    0.6353 H         1 UNK         0.0815 
    108 H108       28.3715   29.4153   -0.0298 H         1 UNK         0.0815 
    109 H109       26.6415   29.7209    0.1099 H         1 UNK         0.0815 
    110 H110       28.2742   30.9860    3.7900 H         1 UNK         0.2987 
    111 H111       30.9539   29.8124    4.3496 H         1 UNK         0.0949 
    112 H112       29.1817   31.6715    6.0250 H         1 UNK         0.0806 
    113 H113       29.4117   29.9445    6.2651 H         1 UNK         0.0806 
    114 H114       30.7610   31.0321    6.4987 H         1 UNK         0.0806 
    115 H115       30.7023   32.9536    5.4410 H         1 UNK         0.3010 
    116 H116       31.7997   34.8408    5.0792 H         1 UNK         0.0829 
    117 H117       31.8942   35.8168    2.7684 H         1 UNK         0.0813 
    118 H118       31.3002   34.3033    2.0943 H         1 UNK         0.0813 
    119 H119       30.2938   35.2378    3.1882 H         1 UNK         0.0813 
    120 H120       33.2614   33.7770    2.0860 H         1 UNK         0.3038 
    121 H121       35.9465   33.8157    3.2238 H         1 UNK         0.0769 
    122 H122       36.6278   33.3468    0.8717 H         1 UNK         0.0811 
    123 H123       35.5136   34.7015    0.9417 H         1 UNK         0.0811 
    124 H124       34.9476   33.1175    0.4083 H         1 UNK         0.0811 
    125 H125       33.5129   31.3380    2.5830 H         1 UNK         0.3204 
    126 H126       35.4906   29.1301    2.6569 H         1 UNK         0.0748 
    127 H127       32.4550   29.1456    2.2506 H         1 UNK         0.0771 
    128 H128       33.6623   29.0144    0.9767 H         1 UNK         0.0771 
    129 H129       33.4867   27.7260    2.1575 H         1 UNK         0.0771 
    130 H130       35.4935   27.5919    4.2384 H         1 UNK         0.2980 
    131 H131       35.6486   26.8038    6.2256 H         1 UNK         0.0545 
    132 H132       35.7375   29.9173    6.3991 H         1 UNK         0.3459 
    133 H133       35.7157   30.1131    8.1348 H         1 UNK         0.3459 
    134 H134       33.5729   25.7781    5.4778 H         1 UNK         0.0616 
    135 H135       33.7159   25.8142    7.1966 H         1 UNK         0.0616 
    136 H136       30.2469   27.5377    4.8118 H         1 UNK         0.0634 
    137 H137       31.8338   27.4205    4.1000 H         1 UNK         0.0634 
@<TRIPOS>BOND
     1    1    2 1    
     2    1   72 1    
     3    1   73 1    
     4    1   74 1    
     5    2    3 2    
     6    2    4 am   BACKBONE|DICT|INTERRES
     7    4    5 1    
     8    4   75 1    
     9    5    6 1    
    10    5   35 1    
    11    5   76 1    
    12    6    7 1    
    13    6   77 1    
    14    6   78 1    
    15    7    8 1    
    16    8    9 1    
    17    8   79 1    
    18    8   80 1    
    19    9   10 ar   
    20    9   14 ar   
    21   10   11 ar   
    22   10   81 1    
    23   11   12 ar   
    24   11   71 1    
    25   12   13 ar   
    26   12   82 1    
    27   13   14 ar   
    28   13   15 1    
    29   14   83 1    
    30   15   16 1    
    31   15   84 1    
    32   15   85 1    
    33   16   17 1    
    34   17   18 1    
    35   17   86 1    
    36   17   87 1    
    37   18   19 1    
    38   18   37 1    
    39   18   88 1    
    40   19   20 am   BACKBONE|DICT|INTERRES
    41   19   89 1    
    42   20   21 2    
    43   20   22 1    
    44   22   23 1    
    45   22   24 1    
    46   22   90 1    
    47   23   91 1    
    48   23   92 1    
    49   23   93 1    
    50   24   25 am   BACKBONE|DICT|INTERRES
    51   24   94 1    
    52   25   26 2    
    53   25   27 1    
    54   27   28 1    
    55   27   29 1    
    56   27   95 1    
    57   28   96 1    
    58   28   97 1    
    59   28   98 1    
    60   29   30 am   BACKBONE|DICT|INTERRES
    61   29   99 1    
    62   30   31 2    
    63   30   32 1    
    64   32   33 1    
    65   32   34 1    
    66   32  100 1    
    67   33  101 1    
    68   33  102 1    
    69   33  103 1    
    70   34   35 am   BACKBONE|DICT|INTERRES
    71   34  104 1    
    72   35   36 2    
    73   37   38 2    
    74   37   39 am   BACKBONE|DICT|INTERRES
    75   39   40 1    
    76   39  105 1    
    77   40   41 1    
    78   40   42 1    
    79   40  106 1    
    80   41  107 1    
    81   41  108 1    
    82   41  109 1    
    83   42   43 2    
    84   42   44 am   BACKBONE|DICT|INTERRES
    85   44   45 1    
    86   44  110 1    
    87   45   46 1    
    88   45   47 1    
    89   45  111 1    
    90   46  112 1    
    91   46  113 1    
    92   46  114 1    
    93   47   48 2    
    94   47   49 am   BACKBONE|DICT|INTERRES
    95   49   50 1    
    96   49  115 1    
    97   50   51 1    
    98   50   52 1    
    99   50  116 1    
   100   51  117 1    
   101   51  118 1    
   102   51  119 1    
   103   52   53 2    
   104   52   54 am   BACKBONE|DICT|INTERRES
   105   54   55 1    
   106   54  120 1    
   107   55   56 1    
   108   55   57 1    
   109   55  121 1    
   110   56  122 1    
   111   56  123 1    
   112   56  124 1    
   113   57   58 2    
   114   57   59 am   BACKBONE|DICT|INTERRES
   115   59   60 1    
   116   59  125 1    
   117   60   61 1    
   118   60   62 1    
   119   60  126 1    
   120   61  127 1    
   121   61  128 1    
   122   61  129 1    
   123   62   63 2    
   124   62   64 am   BACKBONE|DICT|INTERRES
   125   64   65 1    
   126   64  130 1    
   127   65   66 1    
   128   65   69 1    
   129   65  131 1    
   130   66   67 am   BACKBONE|DICT|INTERRES
   131   66   68 2    
   132   67  132 1    
   133   67  133 1    
   134   69   70 1    
   135   69  134 1    
   136   69  135 1    
   137   70   71 1    
   138   71  136 1    
   139   71  137 1    
@<TRIPOS>SUBSTRUCTURE
     1 UNK         1 GROUP             0       ****    0 ROOT    
