@<TRIPOS>MOLECULE
3R136
137   139    1
SMALL
USER_CHARGES


@<TRIPOS>ATOM
      1 CA         28.6419   18.3857    0.0573 C.3       0 UNK        -0.1979 
      2 C          29.0570   19.7532   -0.4653 C.2       0 UNK         0.4864 
      3 O          29.6953   19.8388   -1.5157 O.2       0 UNK        -0.5359 
      4 N          28.7060   20.8227    0.2610 N.am      1 UNK        -0.4318 
      5 CA         28.9656   22.2121   -0.1195 C.3       1 UNK         0.0824 
      6 C6         28.8371   23.1565    1.1014 C.3       12 UNK        -0.0944 
      7 S7         29.4951   24.8351    0.7896 S.3       12 UNK        -0.2672 
      8 C8         30.9341   24.8994    1.9159 C.3       12 UNK         0.0333 
      9 C9         30.5859   25.4233    3.3079 C.ar      12 UNK        -0.0807 
     10 C10        31.3382   26.4577    3.8766 C.ar      12 UNK        -0.0894 
     11 C11        31.0302   26.9460    5.1510 C.ar      12 UNK        -0.0804 
     12 C12        29.9342   26.4237    5.8436 C.ar      12 UNK        -0.0824 
     13 C13        29.1718   25.3935    5.2877 C.ar      12 UNK        -0.0762 
     14 C14        29.5268   24.8758    4.0396 C.ar      12 UNK        -0.0782 
     15 C15        27.9532   24.8498    6.0231 C.3       12 UNK         0.0230 
     16 S16        26.4431   24.9047    4.9978 S.3       12 UNK        -0.2608 
     17 C17        26.2783   26.6930    4.6567 C.3       12 UNK        -0.0989 
     18 CA         26.8626   27.1203    3.2765 C.3       5 UNK         0.0716 
     19 N          26.3775   26.3340    2.1355 N.am      5 UNK        -0.4135 
     20 C          25.1057   26.1771    1.7448 C.2       4 UNK         0.5031 
     21 O          24.1415   26.6970    2.3093 O.2       4 UNK        -0.5229 
     22 CA         24.8957   25.3161    0.4803 C.3       4 UNK         0.0329 
     23 CB         23.4652   25.4278   -0.0877 C.3       4 UNK        -0.2001 
     24 N          25.8835   25.5798   -0.5777 N.am      4 UNK        -0.4303 
     25 C          26.1683   26.7722   -1.1295 C.2       3 UNK         0.5044 
     26 O          25.6417   27.8230   -0.7676 O.2       3 UNK        -0.5152 
     27 CA         27.2448   26.8394   -2.2295 C.3       3 UNK         0.0319 
     28 CB         28.4189   27.7227   -1.7774 C.3       3 UNK        -0.2001 
     29 N          27.7670   25.5288   -2.6148 N.am      3 UNK        -0.4354 
     30 C          27.1817   24.6906   -3.4814 C.2       2 UNK         0.4964 
     31 O          26.1612   24.9597   -4.1152 O.2       2 UNK        -0.5047 
     32 CA         27.8316   23.3038   -3.6464 C.3       2 UNK         0.0288 
     33 CB         28.7701   23.2900   -4.8639 C.3       2 UNK        -0.2113 
     34 N          28.5710   22.8557   -2.4593 N.am      2 UNK        -0.4145 
     35 C          28.0163   22.6189   -1.2618 C.2       1 UNK         0.5006 
     36 O          26.8106   22.7387   -1.0310 O.2       1 UNK        -0.5103 
     37 C          26.8008   28.6505    3.0635 C.2       5 UNK         0.5055 
     38 O          27.0793   29.3876    4.0110 O.2       5 UNK        -0.5220 
     39 N          26.5014   29.1283    1.8425 N.am      6 UNK        -0.4450 
     40 CA         26.5795   30.5541    1.4952 C.3       6 UNK         0.0367 
     41 CB         25.8014   30.8291    0.1995 C.3       6 UNK        -0.1929 
     42 C          28.0297   31.0532    1.3624 C.2       6 UNK         0.5070 
     43 O          28.2809   32.2417    1.5640 O.2       6 UNK        -0.5237 
     44 N          28.9684   30.1443    1.0591 N.am      7 UNK        -0.4739 
     45 CA         30.4091   30.3981    0.9529 C.3       7 UNK         0.0276 
     46 CB         31.0516   29.2993    0.0850 C.3       7 UNK        -0.1927 
     47 C          31.0858   30.5207    2.3327 C.2       7 UNK         0.5013 
     48 O          32.0803   29.8426    2.5941 O.2       7 UNK        -0.5193 
     49 N          30.5458   31.3963    3.1917 N.am      8 UNK        -0.4253 
     50 CA         30.9849   31.6347    4.5716 C.3       8 UNK         0.0242 
     51 CB         30.0856   32.7011    5.2153 C.3       8 UNK        -0.2000 
     52 C          32.4673   32.0246    4.7028 C.2       8 UNK         0.4948 
     53 O          33.1072   31.6472    5.6840 O.2       8 UNK        -0.5275 
     54 N          32.9983   32.7193    3.6861 N.am      9 UNK        -0.4246 
     55 CA         34.4064   33.1016    3.5592 C.3       9 UNK         0.0261 
     56 CB         34.5833   33.9729    2.3053 C.3       9 UNK        -0.1959 
     57 C          35.3846   31.9122    3.5276 C.2       9 UNK         0.5033 
     58 O          36.5283   32.0765    3.9548 O.2       9 UNK        -0.5390 
     59 N          34.9302   30.7326    3.0722 N.am      10 UNK        -0.4215 
     60 CA         35.7190   29.4951    3.0761 C.3       10 UNK         0.0240 
     61 CB         35.0169   28.4314    2.2167 C.3       10 UNK        -0.1982 
     62 C          35.9898   28.9523    4.4921 C.2       10 UNK         0.4970 
     63 O          36.9509   28.2030    4.6696 O.2       10 UNK        -0.4916 
     64 N          35.1597   29.3487    5.4649 N.am      11 UNK        -0.4279 
     65 CA         35.3230   29.0487    6.8927 C.3       11 UNK         0.1003 
     66 C          36.1382   30.1348    7.6559 C.2       11 UNK         0.5709 
     67 N          36.6501   31.1771    7.0085 N.am      11 UNK        -0.7358 
     68 O          36.3330   30.0196    8.8638 O.2       11 UNK        -0.4999 
     69 C69        33.9527   28.7691    7.5650 C.3       12 UNK        -0.0954 
     70 S70        33.1381   27.2870    6.8817 S.3       12 UNK        -0.2268 
     71 C71        31.8856   28.0273    5.7914 C.3       12 UNK         0.0203 
     72 H72        28.0941   18.4570    0.9969 H         1 UNK         0.0888 
     73 H73        28.0038   17.8844   -0.6699 H         1 UNK         0.0888 
     74 H74        29.5218   17.7651    0.2244 H         1 UNK         0.0888 
     75 H75        28.1555   20.6922    1.0977 H         1 UNK         0.3017 
     76 H76        29.9964   22.2702   -0.4771 H         1 UNK         0.0873 
     77 H77        29.3806   22.7153    1.9374 H         1 UNK         0.0745 
     78 H78        27.8001   23.2395    1.4335 H         1 UNK         0.0745 
     79 H79        31.3958   23.9148    1.9991 H         1 UNK         0.0705 
     80 H80        31.6827   25.5445    1.4531 H         1 UNK         0.0705 
     81 H81        32.1727   26.8792    3.3339 H         1 UNK         0.1334 
     82 H82        29.6830   26.8157    6.8199 H         1 UNK         0.1417 
     83 H83        28.9339   24.0751    3.6268 H         1 UNK         0.1562 
     84 H84        27.7740   25.4021    6.9469 H         1 UNK         0.0748 
     85 H85        28.1467   23.8163    6.3132 H         1 UNK         0.0748 
     86 H86        26.7634   27.2425    5.4658 H         1 UNK         0.0940 
     87 H87        25.2206   26.9534    4.7189 H         1 UNK         0.0940 
     88 H88        27.9319   26.9194    3.3058 H         1 UNK         0.0703 
     89 H89        27.0955   25.8690    1.5978 H         1 UNK         0.3081 
     90 H90        25.0482   24.2809    0.7900 H         1 UNK         0.0719 
     91 H91        23.3335   24.7844   -0.9576 H         1 UNK         0.0809 
     92 H92        23.2288   26.4496   -0.3869 H         1 UNK         0.0809 
     93 H93        22.7241   25.1252    0.6532 H         1 UNK         0.0809 
     94 H94        26.3623   24.7576   -0.9290 H         1 UNK         0.2990 
     95 H95        26.7849   27.3082   -3.1020 H         1 UNK         0.0690 
     96 H96        29.1746   27.8070   -2.5586 H         1 UNK         0.0788 
     97 H97        28.9019   27.3257   -0.8845 H         1 UNK         0.0788 
     98 H98        28.0838   28.7349   -1.5473 H         1 UNK         0.0788 
     99 H99        28.6072   25.2223   -2.1455 H         1 UNK         0.2993 
    100 H100       27.0254   22.5886   -3.8247 H         1 UNK         0.0949 
    101 H101       28.2405   23.5934   -5.7684 H         1 UNK         0.0767 
    102 H102       29.6112   23.9724   -4.7342 H         1 UNK         0.0767 
    103 H103       29.1705   22.2922   -5.0452 H         1 UNK         0.0767 
    104 H104       29.5635   22.7051   -2.5739 H         1 UNK         0.3013 
    105 H105       26.2287   28.4933    1.0987 H         1 UNK         0.3121 
    106 H106       26.1058   31.1266    2.2959 H         1 UNK         0.0774 
    107 H107       25.7454   31.9003    0.0021 H         1 UNK         0.0815 
    108 H108       26.2779   30.3675   -0.6657 H         1 UNK         0.0815 
    109 H109       24.7789   30.4559    0.2602 H         1 UNK         0.0815 
    110 H110       28.6739   29.1860    0.9503 H         1 UNK         0.2987 
    111 H111       30.5586   31.3524    0.4431 H         1 UNK         0.0949 
    112 H112       30.9114   28.3074    0.5173 H         1 UNK         0.0806 
    113 H113       30.6349   29.2960   -0.9214 H         1 UNK         0.0806 
    114 H114       32.1258   29.4587   -0.0199 H         1 UNK         0.0806 
    115 H115       29.7277   31.9065    2.8716 H         1 UNK         0.3010 
    116 H116       30.8451   30.7008    5.1169 H         1 UNK         0.0829 
    117 H117       29.0415   32.3868    5.2216 H         1 UNK         0.0813 
    118 H118       30.3744   32.8817    6.2518 H         1 UNK         0.0813 
    119 H119       30.1467   33.6538    4.6878 H         1 UNK         0.0813 
    120 H120       32.3880   32.9785    2.9247 H         1 UNK         0.3038 
    121 H121       34.6597   33.7039    4.4341 H         1 UNK         0.0769 
    122 H122       35.6197   34.2967    2.1985 H         1 UNK         0.0811 
    123 H123       33.9697   34.8726    2.3559 H         1 UNK         0.0811 
    124 H124       34.3159   33.4324    1.3963 H         1 UNK         0.0811 
    125 H125       33.9589   30.6469    2.7869 H         1 UNK         0.3204 
    126 H126       36.6865   29.7144    2.6196 H         1 UNK         0.0748 
    127 H127       35.6352   27.5379    2.1215 H         1 UNK         0.0771 
    128 H128       34.0685   28.1227    2.6555 H         1 UNK         0.0771 
    129 H129       34.8177   28.7980    1.2096 H         1 UNK         0.0771 
    130 H130       34.4212   30.0070    5.2481 H         1 UNK         0.2980 
    131 H131       35.9151   28.1371    6.9901 H         1 UNK         0.0545 
    132 H132       36.5236   31.2898    6.0117 H         1 UNK         0.3459 
    133 H133       37.1800   31.8603    7.5257 H         1 UNK         0.3459 
    134 H134       34.0796   28.5922    8.6345 H         1 UNK         0.0616 
    135 H135       33.2918   29.6329    7.4789 H         1 UNK         0.0616 
    136 H136       32.3780   28.6286    5.0262 H         1 UNK         0.0634 
    137 H137       31.2568   28.7046    6.3708 H         1 UNK         0.0634 
@<TRIPOS>BOND
     1    1    2 1    
     2    1   72 1    
     3    1   73 1    
     4    1   74 1    
     5    2    3 2    
     6    2    4 am   BACKBONE|DICT|INTERRES
     7    4    5 1    
     8    4   75 1    
     9    5    6 1    
    10    5   35 1    
    11    5   76 1    
    12    6    7 1    
    13    6   77 1    
    14    6   78 1    
    15    7    8 1    
    16    8    9 1    
    17    8   79 1    
    18    8   80 1    
    19    9   10 ar   
    20    9   14 ar   
    21   10   11 ar   
    22   10   81 1    
    23   11   12 ar   
    24   11   71 1    
    25   12   13 ar   
    26   12   82 1    
    27   13   14 ar   
    28   13   15 1    
    29   14   83 1    
    30   15   16 1    
    31   15   84 1    
    32   15   85 1    
    33   16   17 1    
    34   17   18 1    
    35   17   86 1    
    36   17   87 1    
    37   18   19 1    
    38   18   37 1    
    39   18   88 1    
    40   19   20 am   BACKBONE|DICT|INTERRES
    41   19   89 1    
    42   20   21 2    
    43   20   22 1    
    44   22   23 1    
    45   22   24 1    
    46   22   90 1    
    47   23   91 1    
    48   23   92 1    
    49   23   93 1    
    50   24   25 am   BACKBONE|DICT|INTERRES
    51   24   94 1    
    52   25   26 2    
    53   25   27 1    
    54   27   28 1    
    55   27   29 1    
    56   27   95 1    
    57   28   96 1    
    58   28   97 1    
    59   28   98 1    
    60   29   30 am   BACKBONE|DICT|INTERRES
    61   29   99 1    
    62   30   31 2    
    63   30   32 1    
    64   32   33 1    
    65   32   34 1    
    66   32  100 1    
    67   33  101 1    
    68   33  102 1    
    69   33  103 1    
    70   34   35 am   BACKBONE|DICT|INTERRES
    71   34  104 1    
    72   35   36 2    
    73   37   38 2    
    74   37   39 am   BACKBONE|DICT|INTERRES
    75   39   40 1    
    76   39  105 1    
    77   40   41 1    
    78   40   42 1    
    79   40  106 1    
    80   41  107 1    
    81   41  108 1    
    82   41  109 1    
    83   42   43 2    
    84   42   44 am   BACKBONE|DICT|INTERRES
    85   44   45 1    
    86   44  110 1    
    87   45   46 1    
    88   45   47 1    
    89   45  111 1    
    90   46  112 1    
    91   46  113 1    
    92   46  114 1    
    93   47   48 2    
    94   47   49 am   BACKBONE|DICT|INTERRES
    95   49   50 1    
    96   49  115 1    
    97   50   51 1    
    98   50   52 1    
    99   50  116 1    
   100   51  117 1    
   101   51  118 1    
   102   51  119 1    
   103   52   53 2    
   104   52   54 am   BACKBONE|DICT|INTERRES
   105   54   55 1    
   106   54  120 1    
   107   55   56 1    
   108   55   57 1    
   109   55  121 1    
   110   56  122 1    
   111   56  123 1    
   112   56  124 1    
   113   57   58 2    
   114   57   59 am   BACKBONE|DICT|INTERRES
   115   59   60 1    
   116   59  125 1    
   117   60   61 1    
   118   60   62 1    
   119   60  126 1    
   120   61  127 1    
   121   61  128 1    
   122   61  129 1    
   123   62   63 2    
   124   62   64 am   BACKBONE|DICT|INTERRES
   125   64   65 1    
   126   64  130 1    
   127   65   66 1    
   128   65   69 1    
   129   65  131 1    
   130   66   67 am   BACKBONE|DICT|INTERRES
   131   66   68 2    
   132   67  132 1    
   133   67  133 1    
   134   69   70 1    
   135   69  134 1    
   136   69  135 1    
   137   70   71 1    
   138   71  136 1    
   139   71  137 1    
@<TRIPOS>SUBSTRUCTURE
     1 UNK         1 GROUP             0       ****    0 ROOT    
