@<TRIPOS>MOLECULE
3R136
137   139    1
SMALL
USER_CHARGES


@<TRIPOS>ATOM
      1 CA         27.9591   29.1166   -4.3090 C.3       0 UNK        -0.1979 
      2 C          27.4282   28.7397   -2.9340 C.2       0 UNK         0.4864 
      3 O          26.4333   29.3093   -2.4849 O.2       0 UNK        -0.5359 
      4 N          28.0843   27.7838   -2.2625 N.am      1 UNK        -0.4318 
      5 CA         27.7234   27.3039   -0.9230 C.3       1 UNK         0.0824 
      6 C6         28.9283   26.6295   -0.2172 C.3       12 UNK        -0.0944 
      7 S7         29.5210   25.1168   -1.0594 S.3       12 UNK        -0.2672 
      8 C8         31.3273   25.3424   -1.0195 C.3       12 UNK         0.0333 
      9 C9         31.8707   25.2695    0.3997 C.ar      12 UNK        -0.0807 
     10 C10        32.4290   26.3995    1.0027 C.ar      12 UNK        -0.0894 
     11 C11        32.9175   26.3402    2.3117 C.ar      12 UNK        -0.0804 
     12 C12        32.8381   25.1393    3.0221 C.ar      12 UNK        -0.0824 
     13 C13        32.2633   24.0074    2.4343 C.ar      12 UNK        -0.0762 
     14 C14        31.8037   24.0718    1.1159 C.ar      12 UNK        -0.0782 
     15 C15        32.0738   22.7317    3.2396 C.3       12 UNK         0.0230 
     16 S16        30.3176   22.4787    3.6632 S.3       12 UNK        -0.2608 
     17 C17        29.9553   23.9813    4.6363 C.3       12 UNK        -0.0989 
     18 CA         29.2746   25.0978    3.7907 C.3       5 UNK         0.0716 
     19 N          27.9855   24.6900    3.2191 N.am      5 UNK        -0.4135 
     20 C          26.8573   24.4025    3.8872 C.2       4 UNK         0.5031 
     21 O          26.7429   24.4571    5.1121 O.2       4 UNK        -0.5229 
     22 CA         25.6348   23.9834    3.0508 C.3       4 UNK         0.0329 
     23 CB         24.5955   25.1166    3.0161 C.3       4 UNK        -0.2001 
     24 N          25.9867   23.6027    1.6786 N.am      4 UNK        -0.4303 
     25 C          26.4274   22.3852    1.3217 C.2       3 UNK         0.5044 
     26 O          26.5509   21.4566    2.1216 O.2       3 UNK        -0.5152 
     27 CA         26.8299   22.1564   -0.1531 C.3       3 UNK         0.0319 
     28 CB         26.4012   20.7666   -0.6704 C.3       3 UNK        -0.2001 
     29 N          26.4061   23.2184   -1.0745 N.am      3 UNK        -0.4354 
     30 C          25.1539   23.5803   -1.4000 C.2       2 UNK         0.4964 
     31 O          24.1458   22.9825   -1.0213 O.2       2 UNK        -0.5047 
     32 CA         25.0133   24.8543   -2.2643 C.3       2 UNK         0.0288 
     33 CB         23.6442   25.5437   -2.0801 C.3       2 UNK        -0.2113 
     34 N          26.1025   25.8248   -2.0644 N.am      2 UNK        -0.4145 
     35 C          26.4818   26.3882   -0.9039 C.2       1 UNK         0.5006 
     36 O          25.9354   26.1599    0.1756 O.2       1 UNK        -0.5103 
     37 C          29.1566   26.4314    4.5576 C.2       5 UNK         0.5055 
     38 O          29.4633   26.4819    5.7498 O.2       5 UNK        -0.5220 
     39 N          28.6863   27.4812    3.8683 N.am      6 UNK        -0.4450 
     40 CA         28.4648   28.8062    4.4486 C.3       6 UNK         0.0367 
     41 CB         27.1516   28.8141    5.2618 C.3       6 UNK        -0.1929 
     42 C          28.5141   29.9123    3.3805 C.2       6 UNK         0.5070 
     43 O          27.6594   30.8001    3.3884 O.2       6 UNK        -0.5237 
     44 N          29.4975   29.8582    2.4725 N.am      7 UNK        -0.4739 
     45 CA         29.7403   30.8934    1.4639 C.3       7 UNK         0.0276 
     46 CB         28.7630   30.7446    0.2824 C.3       7 UNK        -0.1927 
     47 C          31.1831   30.7996    0.9595 C.2       7 UNK         0.5013 
     48 O          31.7797   29.7264    1.0300 O.2       7 UNK        -0.5193 
     49 N          31.6904   31.9154    0.4168 N.am      8 UNK        -0.4253 
     50 CA         32.9856   32.0793   -0.2645 C.3       8 UNK         0.0242 
     51 CB         33.0918   31.1398   -1.4860 C.3       8 UNK        -0.2000 
     52 C          34.2376   31.9884    0.6338 C.2       8 UNK         0.4948 
     53 O          35.3476   32.1193    0.1143 O.2       8 UNK        -0.5275 
     54 N          34.0640   31.8137    1.9480 N.am      9 UNK        -0.4246 
     55 CA         35.1136   31.8056    2.9646 C.3       9 UNK         0.0261 
     56 CB         35.9260   30.4928    2.9104 C.3       9 UNK        -0.1959 
     57 C          34.4588   32.0207    4.3368 C.2       9 UNK         0.5033 
     58 O          33.2517   32.2644    4.4112 O.2       9 UNK        -0.5390 
     59 N          35.2608   31.9019    5.4024 N.am      10 UNK        -0.4215 
     60 CA         34.8513   32.0479    6.8049 C.3       10 UNK         0.0240 
     61 CB         36.1030   32.3488    7.6501 C.3       10 UNK        -0.1982 
     62 C          34.0667   30.8468    7.3806 C.2       10 UNK         0.4970 
     63 O          33.8063   30.8313    8.5850 O.2       10 UNK        -0.4916 
     64 N          33.7194   29.8622    6.5416 N.am      11 UNK        -0.4279 
     65 CA         32.8716   28.7082    6.8745 C.3       11 UNK         0.1003 
     66 C          31.4439   29.1029    7.3551 C.2       11 UNK         0.5709 
     67 N          30.8340   28.2918    8.2086 N.am      11 UNK        -0.7358 
     68 O          30.8825   30.1224    6.9574 O.2       11 UNK        -0.4999 
     69 C69        32.8365   27.6754    5.7122 C.3       12 UNK        -0.0954 
     70 S70        32.3774   28.3965    4.0951 S.3       12 UNK        -0.2268 
     71 C71        33.5319   27.5763    2.9495 C.3       12 UNK         0.0203 
     72 H72        27.1942   28.9468   -5.0663 H         1 UNK         0.0888 
     73 H73        28.2305   30.1717   -4.3290 H         1 UNK         0.0888 
     74 H74        28.8402   28.5351   -4.5800 H         1 UNK         0.0888 
     75 H75        28.8948   27.3449   -2.6771 H         1 UNK         0.3017 
     76 H76        27.4417   28.1719   -0.3244 H         1 UNK         0.0873 
     77 H77        29.7473   27.3469   -0.1397 H         1 UNK         0.0745 
     78 H78        28.6745   26.3702    0.8110 H         1 UNK         0.0745 
     79 H79        31.7942   24.5612   -1.6209 H         1 UNK         0.0705 
     80 H80        31.5853   26.2910   -1.4932 H         1 UNK         0.0705 
     81 H81        32.4818   27.3292    0.4532 H         1 UNK         0.1334 
     82 H82        33.1965   25.0975    4.0414 H         1 UNK         0.1417 
     83 H83        31.3515   23.2003    0.6617 H         1 UNK         0.1562 
     84 H84        32.6688   22.7530    4.1541 H         1 UNK         0.0748 
     85 H85        32.4287   21.8781    2.6604 H         1 UNK         0.0748 
     86 H86        30.8850   24.3440    5.0782 H         1 UNK         0.0940 
     87 H87        29.3220   23.6994    5.4790 H         1 UNK         0.0940 
     88 H88        29.9192   25.3153    2.9399 H         1 UNK         0.0703 
     89 H89        27.9634   24.5892    2.2161 H         1 UNK         0.3081 
     90 H90        25.1758   23.1258    3.5475 H         1 UNK         0.0719 
     91 H91        24.2276   25.3356    4.0194 H         1 UNK         0.0809 
     92 H92        25.0148   26.0413    2.6190 H         1 UNK         0.0809 
     93 H93        23.7331   24.8485    2.4055 H         1 UNK         0.0809 
     94 H94        25.8999   24.3304    0.9750 H         1 UNK         0.2990 
     95 H95        27.9208   22.1823   -0.1623 H         1 UNK         0.0690 
     96 H96        26.7075   20.6162   -1.7055 H         1 UNK         0.0788 
     97 H97        25.3212   20.6277   -0.6154 H         1 UNK         0.0788 
     98 H98        26.8588   19.9710   -0.0811 H         1 UNK         0.0788 
     99 H99        27.1586   23.7860   -1.4411 H         1 UNK         0.2993 
    100 H100       25.0807   24.5215   -3.3012 H         1 UNK         0.0949 
    101 H101       23.4803   25.8452   -1.0448 H         1 UNK         0.0767 
    102 H102       23.5612   26.4330   -2.7050 H         1 UNK         0.0767 
    103 H103       22.8270   24.8770   -2.3585 H         1 UNK         0.0767 
    104 H104       26.6377   26.0600   -2.8886 H         1 UNK         0.3013 
    105 H105       28.4465   27.3769    2.8931 H         1 UNK         0.3121 
    106 H106       29.2866   29.0246    5.1322 H         1 UNK         0.0774 
    107 H107       26.9877   29.7831    5.7349 H         1 UNK         0.0815 
    108 H108       26.2884   28.6054    4.6290 H         1 UNK         0.0815 
    109 H109       27.1694   28.0711    6.0592 H         1 UNK         0.0815 
    110 H110       30.2220   29.1509    2.5354 H         1 UNK         0.2987 
    111 H111       29.6019   31.8715    1.9308 H         1 UNK         0.0949 
    112 H112       27.7254   30.6818    0.6099 H         1 UNK         0.0806 
    113 H113       28.8345   31.5988   -0.3917 H         1 UNK         0.0806 
    114 H114       28.9893   29.8569   -0.3065 H         1 UNK         0.0806 
    115 H115       31.1132   32.7455    0.4284 H         1 UNK         0.3010 
    116 H116       32.9817   33.1013   -0.6466 H         1 UNK         0.0829 
    117 H117       33.1763   30.0941   -1.1884 H         1 UNK         0.0813 
    118 H118       32.2235   31.2347   -2.1379 H         1 UNK         0.0813 
    119 H119       33.9718   31.3748   -2.0858 H         1 UNK         0.0813 
    120 H120       33.1256   31.7571    2.3251 H         1 UNK         0.3038 
    121 H121       35.7787   32.6511    2.7772 H         1 UNK         0.0769 
    122 H122       36.2383   30.2462    1.8958 H         1 UNK         0.0811 
    123 H123       35.3543   29.6510    3.2960 H         1 UNK         0.0811 
    124 H124       36.8355   30.5659    3.5070 H         1 UNK         0.0811 
    125 H125       36.2354   31.6863    5.2466 H         1 UNK         0.3204 
    126 H126       34.1864   32.9115    6.8726 H         1 UNK         0.0748 
    127 H127       36.8031   31.5123    7.6453 H         1 UNK         0.0771 
    128 H128       36.6288   33.2303    7.2824 H         1 UNK         0.0771 
    129 H129       35.8398   32.5471    8.6901 H         1 UNK         0.0771 
    130 H130       33.9126   29.9832    5.5599 H         1 UNK         0.2980 
    131 H131       33.3560   28.2186    7.7216 H         1 UNK         0.0545 
    132 H132       29.9022   28.5192    8.5160 H         1 UNK         0.3459 
    133 H133       31.2688   27.4381    8.5204 H         1 UNK         0.3459 
    134 H134       32.1516   26.8565    5.9368 H         1 UNK         0.0616 
    135 H135       33.8205   27.2134    5.6290 H         1 UNK         0.0616 
    136 H136       33.8013   28.2919    2.1715 H         1 UNK         0.0634 
    137 H137       34.4634   27.3165    3.4531 H         1 UNK         0.0634 
@<TRIPOS>BOND
     1    1    2 1    
     2    1   72 1    
     3    1   73 1    
     4    1   74 1    
     5    2    3 2    
     6    2    4 am   BACKBONE|DICT|INTERRES
     7    4    5 1    
     8    4   75 1    
     9    5    6 1    
    10    5   35 1    
    11    5   76 1    
    12    6    7 1    
    13    6   77 1    
    14    6   78 1    
    15    7    8 1    
    16    8    9 1    
    17    8   79 1    
    18    8   80 1    
    19    9   10 ar   
    20    9   14 ar   
    21   10   11 ar   
    22   10   81 1    
    23   11   12 ar   
    24   11   71 1    
    25   12   13 ar   
    26   12   82 1    
    27   13   14 ar   
    28   13   15 1    
    29   14   83 1    
    30   15   16 1    
    31   15   84 1    
    32   15   85 1    
    33   16   17 1    
    34   17   18 1    
    35   17   86 1    
    36   17   87 1    
    37   18   19 1    
    38   18   37 1    
    39   18   88 1    
    40   19   20 am   BACKBONE|DICT|INTERRES
    41   19   89 1    
    42   20   21 2    
    43   20   22 1    
    44   22   23 1    
    45   22   24 1    
    46   22   90 1    
    47   23   91 1    
    48   23   92 1    
    49   23   93 1    
    50   24   25 am   BACKBONE|DICT|INTERRES
    51   24   94 1    
    52   25   26 2    
    53   25   27 1    
    54   27   28 1    
    55   27   29 1    
    56   27   95 1    
    57   28   96 1    
    58   28   97 1    
    59   28   98 1    
    60   29   30 am   BACKBONE|DICT|INTERRES
    61   29   99 1    
    62   30   31 2    
    63   30   32 1    
    64   32   33 1    
    65   32   34 1    
    66   32  100 1    
    67   33  101 1    
    68   33  102 1    
    69   33  103 1    
    70   34   35 am   BACKBONE|DICT|INTERRES
    71   34  104 1    
    72   35   36 2    
    73   37   38 2    
    74   37   39 am   BACKBONE|DICT|INTERRES
    75   39   40 1    
    76   39  105 1    
    77   40   41 1    
    78   40   42 1    
    79   40  106 1    
    80   41  107 1    
    81   41  108 1    
    82   41  109 1    
    83   42   43 2    
    84   42   44 am   BACKBONE|DICT|INTERRES
    85   44   45 1    
    86   44  110 1    
    87   45   46 1    
    88   45   47 1    
    89   45  111 1    
    90   46  112 1    
    91   46  113 1    
    92   46  114 1    
    93   47   48 2    
    94   47   49 am   BACKBONE|DICT|INTERRES
    95   49   50 1    
    96   49  115 1    
    97   50   51 1    
    98   50   52 1    
    99   50  116 1    
   100   51  117 1    
   101   51  118 1    
   102   51  119 1    
   103   52   53 2    
   104   52   54 am   BACKBONE|DICT|INTERRES
   105   54   55 1    
   106   54  120 1    
   107   55   56 1    
   108   55   57 1    
   109   55  121 1    
   110   56  122 1    
   111   56  123 1    
   112   56  124 1    
   113   57   58 2    
   114   57   59 am   BACKBONE|DICT|INTERRES
   115   59   60 1    
   116   59  125 1    
   117   60   61 1    
   118   60   62 1    
   119   60  126 1    
   120   61  127 1    
   121   61  128 1    
   122   61  129 1    
   123   62   63 2    
   124   62   64 am   BACKBONE|DICT|INTERRES
   125   64   65 1    
   126   64  130 1    
   127   65   66 1    
   128   65   69 1    
   129   65  131 1    
   130   66   67 am   BACKBONE|DICT|INTERRES
   131   66   68 2    
   132   67  132 1    
   133   67  133 1    
   134   69   70 1    
   135   69  134 1    
   136   69  135 1    
   137   70   71 1    
   138   71  136 1    
   139   71  137 1    
@<TRIPOS>SUBSTRUCTURE
     1 UNK         1 GROUP             0       ****    0 ROOT    
