@<TRIPOS>MOLECULE
3R136
137   139    1
SMALL
USER_CHARGES


@<TRIPOS>ATOM
      1 CA         28.4009   18.0996    2.1812 C.3       0 UNK        -0.1979 
      2 C          28.3153   19.2348    1.1717 C.2       0 UNK         0.4864 
      3 O          28.3186   18.9823   -0.0338 O.2       0 UNK        -0.5359 
      4 N          28.2384   20.4825    1.6549 N.am      1 UNK        -0.4318 
      5 CA         28.1687   21.6995    0.8340 C.3       1 UNK         0.0824 
      6 C6         28.4793   22.9727    1.6595 C.3       12 UNK        -0.0944 
      7 S7         30.1543   22.9410    2.3873 S.3       12 UNK        -0.2672 
      8 C8         30.9963   24.2685    1.4573 C.3       12 UNK         0.0333 
      9 C9         30.8866   25.6500    2.1033 C.ar      12 UNK        -0.0807 
     10 C10        32.0054   26.4910    2.1197 C.ar      12 UNK        -0.0894 
     11 C11        31.9296   27.7710    2.6772 C.ar      12 UNK        -0.0804 
     12 C12        30.7182   28.2203    3.2075 C.ar      12 UNK        -0.0824 
     13 C13        29.5879   27.3997    3.1876 C.ar      12 UNK        -0.0762 
     14 C14        29.6833   26.1127    2.6505 C.ar      12 UNK        -0.0782 
     15 C15        28.2581   27.9110    3.7276 C.3       12 UNK         0.0230 
     16 S16        26.9633   27.9677    2.4416 S.3       12 UNK        -0.2608 
     17 C17        27.7437   29.0282    1.1760 C.3       12 UNK        -0.0989 
     18 CA         28.2999   28.1971   -0.0056 C.3       5 UNK         0.0716 
     19 N          27.2345   27.5104   -0.7338 N.am      5 UNK        -0.4135 
     20 C          27.4091   26.5430   -1.6409 C.2       4 UNK         0.5031 
     21 O          28.5127   26.1175   -1.9879 O.2       4 UNK        -0.5229 
     22 CA         26.1207   25.9180   -2.2050 C.3       4 UNK         0.0329 
     23 CB         26.3888   24.9166   -3.3438 C.3       4 UNK        -0.2001 
     24 N          25.3796   25.2482   -1.1327 N.am      4 UNK        -0.4303 
     25 C          24.5276   25.8606   -0.2959 C.2       3 UNK         0.5044 
     26 O          24.2587   27.0601   -0.3863 O.2       3 UNK        -0.5152 
     27 CA         23.9118   25.0484    0.8649 C.3       3 UNK         0.0319 
     28 CB         22.3994   25.3149    1.0191 C.3       3 UNK        -0.2001 
     29 N          24.1993   23.6077    0.8388 N.am      3 UNK        -0.4354 
     30 C          23.7908   22.6967   -0.0588 C.2       2 UNK         0.4964 
     31 O          23.0330   22.9469   -0.9971 O.2       2 UNK        -0.5047 
     32 CA         24.3658   21.2724    0.1120 C.3       2 UNK         0.0288 
     33 CB         24.2738   20.4376   -1.1835 C.3       2 UNK        -0.2113 
     34 N          25.7437   21.2489    0.6331 N.am      2 UNK        -0.4145 
     35 C          26.8174   21.8643    0.1064 C.2       1 UNK         0.5006 
     36 O          26.7677   22.5779   -0.8954 O.2       1 UNK        -0.5103 
     37 C          29.1504   29.0614   -0.9538 C.2       5 UNK         0.5055 
     38 O          28.6076   29.9332   -1.6365 O.2       5 UNK        -0.5220 
     39 N          30.4637   28.7990   -0.9752 N.am      6 UNK        -0.4450 
     40 CA         31.4412   29.4989   -1.8146 C.3       6 UNK         0.0367 
     41 CB         32.6917   28.6156   -1.9588 C.3       6 UNK        -0.1929 
     42 C          31.8313   30.8850   -1.2707 C.2       6 UNK         0.5070 
     43 O          32.2988   31.7263   -2.0386 O.2       6 UNK        -0.5237 
     44 N          31.6464   31.0921    0.0356 N.am      7 UNK        -0.4739 
     45 CA         31.9375   32.3103    0.7847 C.3       7 UNK         0.0276 
     46 CB         33.4601   32.4486    1.0071 C.3       7 UNK        -0.1927 
     47 C          31.1534   32.2378    2.1041 C.2       7 UNK         0.5013 
     48 O          30.2816   31.3763    2.2461 O.2       7 UNK        -0.5193 
     49 N          31.4801   33.1164    3.0592 N.am      8 UNK        -0.4253 
     50 CA         30.9913   33.0362    4.4380 C.3       8 UNK         0.0242 
     51 CB         31.3731   34.3266    5.1819 C.3       8 UNK        -0.2000 
     52 C          31.5776   31.8108    5.1608 C.2       8 UNK         0.4948 
     53 O          32.6992   31.4026    4.8539 O.2       8 UNK        -0.5275 
     54 N          30.8420   31.2846    6.1504 N.am      9 UNK        -0.4246 
     55 CA         31.1963   30.0974    6.9469 C.3       9 UNK         0.0261 
     56 CB         30.0233   29.7525    7.8791 C.3       9 UNK        -0.1959 
     57 C          32.5151   30.1986    7.7447 C.2       9 UNK         0.5033 
     58 O          33.0137   29.1774    8.2200 O.2       9 UNK        -0.5390 
     59 N          33.0801   31.4097    7.8435 N.am      10 UNK        -0.4215 
     60 CA         34.4235   31.6999    8.3493 C.3       10 UNK         0.0240 
     61 CB         34.5713   33.2235    8.5028 C.3       10 UNK        -0.1982 
     62 C          35.5674   31.1278    7.4820 C.2       10 UNK         0.4970 
     63 O          36.7154   31.1697    7.9264 O.2       10 UNK        -0.4916 
     64 N          35.2563   30.6093    6.2833 N.am      11 UNK        -0.4279 
     65 CA         36.1829   29.9079    5.3789 C.3       11 UNK         0.1003 
     66 C          36.9259   28.6760    5.9830 C.2       11 UNK         0.5709 
     67 N          36.4178   28.0447    7.0359 N.am      11 UNK        -0.7358 
     68 O          37.9847   28.2956    5.4884 O.2       11 UNK        -0.4999 
     69 C69        35.4908   29.5461    4.0355 C.3       12 UNK        -0.0954 
     70 S70        34.1248   28.3452    4.2207 S.3       12 UNK        -0.2268 
     71 C71        33.1571   28.6663    2.7187 C.3       12 UNK         0.0203 
     72 H72        28.3903   18.4648    3.2080 H         1 UNK         0.0888 
     73 H73        27.5586   17.4199    2.0541 H         1 UNK         0.0888 
     74 H74        29.3206   17.5345    2.0324 H         1 UNK         0.0888 
     75 H75        28.2738   20.6317    2.6538 H         1 UNK         0.3017 
     76 H76        28.9279   21.6138    0.0531 H         1 UNK         0.0873 
     77 H77        28.3777   23.8622    1.0338 H         1 UNK         0.0745 
     78 H78        27.7584   23.0908    2.4708 H         1 UNK         0.0745 
     79 H79        32.0465   23.9853    1.3711 H         1 UNK         0.0705 
     80 H80        30.6128   24.3147    0.4370 H         1 UNK         0.0705 
     81 H81        32.9439   26.1483    1.7050 H         1 UNK         0.1334 
     82 H82        30.6583   29.2122    3.6341 H         1 UNK         0.1417 
     83 H83        28.8025   25.4887    2.6409 H         1 UNK         0.1562 
     84 H84        28.3706   28.9071    4.1593 H         1 UNK         0.0748 
     85 H85        27.9266   27.2600    4.5377 H         1 UNK         0.0748 
     86 H86        28.5342   29.6128    1.6466 H         1 UNK         0.0940 
     87 H87        27.0071   29.7531    0.8243 H         1 UNK         0.0940 
     88 H88        28.9489   27.4209    0.4000 H         1 UNK         0.0703 
     89 H89        26.2848   27.7718   -0.4968 H         1 UNK         0.3081 
     90 H90        25.5143   26.7270   -2.6182 H         1 UNK         0.0719 
     91 H91        27.0287   24.0946   -3.0222 H         1 UNK         0.0809 
     92 H92        25.4605   24.4889   -3.7226 H         1 UNK         0.0809 
     93 H93        26.8874   25.4061   -4.1813 H         1 UNK         0.0809 
     94 H94        25.6095   24.2716   -0.9799 H         1 UNK         0.2990 
     95 H95        24.3981   25.4245    1.7664 H         1 UNK         0.0690 
     96 H96        21.9814   24.7595    1.8587 H         1 UNK         0.0788 
     97 H97        21.8436   25.0390    0.1227 H         1 UNK         0.0788 
     98 H98        22.2054   26.3722    1.2048 H         1 UNK         0.0788 
     99 H99        24.8222   23.2848    1.5658 H         1 UNK         0.2993 
    100 H100       23.7414   20.7863    0.8633 H         1 UNK         0.0949 
    101 H101       24.6676   19.4320   -1.0355 H         1 UNK         0.0767 
    102 H102       23.2390   20.3336   -1.5124 H         1 UNK         0.0767 
    103 H103       24.8310   20.8982   -2.0002 H         1 UNK         0.0767 
    104 H104       25.8877   20.6991    1.4688 H         1 UNK         0.3013 
    105 H105       30.8203   28.0545   -0.3927 H         1 UNK         0.3121 
    106 H106       31.0079   29.6441   -2.8067 H         1 UNK         0.0774 
    107 H107       33.4327   29.0914   -2.6028 H         1 UNK         0.0815 
    108 H108       33.1692   28.4297   -0.9958 H         1 UNK         0.0815 
    109 H109       32.4479   27.6518   -2.4061 H         1 UNK         0.0815 
    110 H110       31.1750   30.3838    0.5846 H         1 UNK         0.2987 
    111 H111       31.5674   33.1695    0.2214 H         1 UNK         0.0949 
    112 H112       33.8491   31.6518    1.6415 H         1 UNK         0.0806 
    113 H113       34.0073   32.4179    0.0650 H         1 UNK         0.0806 
    114 H114       33.7109   33.3974    1.4818 H         1 UNK         0.0806 
    115 H115       32.2272   33.7711    2.8821 H         1 UNK         0.3010 
    116 H116       29.9029   32.9465    4.4141 H         1 UNK         0.0829 
    117 H117       30.9581   35.2060    4.6890 H         1 UNK         0.0813 
    118 H118       30.9896   34.3207    6.2031 H         1 UNK         0.0813 
    119 H119       32.4551   34.4545    5.2406 H         1 UNK         0.0813 
    120 H120       29.9456   31.7034    6.3556 H         1 UNK         0.3038 
    121 H121       31.3262   29.2702    6.2454 H         1 UNK         0.0769 
    122 H122       29.8207   30.5572    8.5868 H         1 UNK         0.0811 
    123 H123       30.2358   28.8538    8.4602 H         1 UNK         0.0811 
    124 H124       29.1103   29.5598    7.3153 H         1 UNK         0.0811 
    125 H125       32.5924   32.1785    7.4087 H         1 UNK         0.3204 
    126 H126       34.5129   31.2436    9.3372 H         1 UNK         0.0748 
    127 H127       33.8152   33.6310    9.1743 H         1 UNK         0.0771 
    128 H128       35.5448   33.4832    8.9213 H         1 UNK         0.0771 
    129 H129       34.4821   33.7357    7.5437 H         1 UNK         0.0771 
    130 H130       34.2973   30.6653    5.9577 H         1 UNK         0.2980 
    131 H131       36.9655   30.6318    5.1457 H         1 UNK         0.0545 
    132 H132       35.5370   28.3412    7.4283 H         1 UNK         0.3459 
    133 H133       36.9052   27.2523    7.4222 H         1 UNK         0.3459 
    134 H134       35.0983   30.4540    3.5748 H         1 UNK         0.0616 
    135 H135       36.2148   29.1410    3.3264 H         1 UNK         0.0616 
    136 H136       33.7796   28.5006    1.8382 H         1 UNK         0.0634 
    137 H137       32.8573   29.7142    2.6990 H         1 UNK         0.0634 
@<TRIPOS>BOND
     1    1    2 1    
     2    1   72 1    
     3    1   73 1    
     4    1   74 1    
     5    2    3 2    
     6    2    4 am   BACKBONE|DICT|INTERRES
     7    4    5 1    
     8    4   75 1    
     9    5    6 1    
    10    5   35 1    
    11    5   76 1    
    12    6    7 1    
    13    6   77 1    
    14    6   78 1    
    15    7    8 1    
    16    8    9 1    
    17    8   79 1    
    18    8   80 1    
    19    9   10 ar   
    20    9   14 ar   
    21   10   11 ar   
    22   10   81 1    
    23   11   12 ar   
    24   11   71 1    
    25   12   13 ar   
    26   12   82 1    
    27   13   14 ar   
    28   13   15 1    
    29   14   83 1    
    30   15   16 1    
    31   15   84 1    
    32   15   85 1    
    33   16   17 1    
    34   17   18 1    
    35   17   86 1    
    36   17   87 1    
    37   18   19 1    
    38   18   37 1    
    39   18   88 1    
    40   19   20 am   BACKBONE|DICT|INTERRES
    41   19   89 1    
    42   20   21 2    
    43   20   22 1    
    44   22   23 1    
    45   22   24 1    
    46   22   90 1    
    47   23   91 1    
    48   23   92 1    
    49   23   93 1    
    50   24   25 am   BACKBONE|DICT|INTERRES
    51   24   94 1    
    52   25   26 2    
    53   25   27 1    
    54   27   28 1    
    55   27   29 1    
    56   27   95 1    
    57   28   96 1    
    58   28   97 1    
    59   28   98 1    
    60   29   30 am   BACKBONE|DICT|INTERRES
    61   29   99 1    
    62   30   31 2    
    63   30   32 1    
    64   32   33 1    
    65   32   34 1    
    66   32  100 1    
    67   33  101 1    
    68   33  102 1    
    69   33  103 1    
    70   34   35 am   BACKBONE|DICT|INTERRES
    71   34  104 1    
    72   35   36 2    
    73   37   38 2    
    74   37   39 am   BACKBONE|DICT|INTERRES
    75   39   40 1    
    76   39  105 1    
    77   40   41 1    
    78   40   42 1    
    79   40  106 1    
    80   41  107 1    
    81   41  108 1    
    82   41  109 1    
    83   42   43 2    
    84   42   44 am   BACKBONE|DICT|INTERRES
    85   44   45 1    
    86   44  110 1    
    87   45   46 1    
    88   45   47 1    
    89   45  111 1    
    90   46  112 1    
    91   46  113 1    
    92   46  114 1    
    93   47   48 2    
    94   47   49 am   BACKBONE|DICT|INTERRES
    95   49   50 1    
    96   49  115 1    
    97   50   51 1    
    98   50   52 1    
    99   50  116 1    
   100   51  117 1    
   101   51  118 1    
   102   51  119 1    
   103   52   53 2    
   104   52   54 am   BACKBONE|DICT|INTERRES
   105   54   55 1    
   106   54  120 1    
   107   55   56 1    
   108   55   57 1    
   109   55  121 1    
   110   56  122 1    
   111   56  123 1    
   112   56  124 1    
   113   57   58 2    
   114   57   59 am   BACKBONE|DICT|INTERRES
   115   59   60 1    
   116   59  125 1    
   117   60   61 1    
   118   60   62 1    
   119   60  126 1    
   120   61  127 1    
   121   61  128 1    
   122   61  129 1    
   123   62   63 2    
   124   62   64 am   BACKBONE|DICT|INTERRES
   125   64   65 1    
   126   64  130 1    
   127   65   66 1    
   128   65   69 1    
   129   65  131 1    
   130   66   67 am   BACKBONE|DICT|INTERRES
   131   66   68 2    
   132   67  132 1    
   133   67  133 1    
   134   69   70 1    
   135   69  134 1    
   136   69  135 1    
   137   70   71 1    
   138   71  136 1    
   139   71  137 1    
@<TRIPOS>SUBSTRUCTURE
     1 UNK         1 GROUP             0       ****    0 ROOT    
