@<TRIPOS>MOLECULE
3R136
137   139    1
SMALL
USER_CHARGES


@<TRIPOS>ATOM
      1 CA         27.5690   23.5127    1.5374 C.3       0 UNK        -0.1979 
      2 C          28.0039   22.9753    0.1852 C.2       0 UNK         0.4864 
      3 O          27.5263   21.9214   -0.2349 O.2       0 UNK        -0.5359 
      4 N          28.9192   23.6851   -0.4880 N.am      1 UNK        -0.4318 
      5 CA         29.5336   23.2904   -1.7633 C.3       1 UNK         0.0824 
      6 C6         30.7900   24.1376   -2.1383 C.3       12 UNK        -0.0944 
      7 S7         31.6163   24.9861   -0.7455 S.3       12 UNK        -0.2672 
      8 C8         32.3137   23.6021    0.2069 C.3       12 UNK         0.0333 
      9 C9         32.4059   23.9583    1.6848 C.ar      12 UNK        -0.0807 
     10 C10        33.3802   24.8556    2.1322 C.ar      12 UNK        -0.0894 
     11 C11        33.4786   25.2010    3.4843 C.ar      12 UNK        -0.0804 
     12 C12        32.5888   24.6146    4.3968 C.ar      12 UNK        -0.0824 
     13 C13        31.6166   23.7050    3.9665 C.ar      12 UNK        -0.0762 
     14 C14        31.5247   23.3873    2.6081 C.ar      12 UNK        -0.0782 
     15 C15        30.7040   23.0189    4.9764 C.3       12 UNK         0.0230 
     16 S16        28.9749   23.5827    4.8741 S.3       12 UNK        -0.2608 
     17 C17        29.0776   25.2805    5.5295 C.3       12 UNK        -0.0989 
     18 CA         28.6720   26.3354    4.4733 C.3       5 UNK         0.0716 
     19 N          27.2902   26.1614    3.9969 N.am      5 UNK        -0.4135 
     20 C          26.7095   26.8932    3.0355 C.2       4 UNK         0.5031 
     21 O          27.2480   27.8563    2.4825 O.2       4 UNK        -0.5229 
     22 CA         25.2752   26.5165    2.6482 C.3       4 UNK         0.0329 
     23 CB         24.2685   27.2726    3.5309 C.3       4 UNK        -0.2001 
     24 N          25.0759   26.9031    1.2537 N.am      4 UNK        -0.4303 
     25 C          24.7162   26.0896    0.2560 C.2       3 UNK         0.5044 
     26 O          24.3676   24.9189    0.4181 O.2       3 UNK        -0.5152 
     27 CA         24.7976   26.6480   -1.1748 C.3       3 UNK         0.0319 
     28 CB         25.4281   28.0596   -1.2694 C.3       3 UNK        -0.2001 
     29 N          25.5594   25.6871   -1.9700 N.am      3 UNK        -0.4354 
     30 C          25.6351   25.6328   -3.3063 C.2       2 UNK         0.4964 
     31 O          25.0065   26.3826   -4.0550 O.2       2 UNK        -0.5047 
     32 CA         26.6032   24.5898   -3.8985 C.3       2 UNK         0.0288 
     33 CB         27.1130   24.9747   -5.3034 C.3       2 UNK        -0.2113 
     34 N          27.7317   24.3835   -2.9888 N.am      2 UNK        -0.4145 
     35 C          28.4999   23.2897   -2.9087 C.2       1 UNK         0.5006 
     36 O          28.4037   22.3159   -3.6578 O.2       1 UNK        -0.5103 
     37 C          28.9555   27.7546    5.0025 C.2       5 UNK         0.5055 
     38 O          30.0526   28.2604    4.7879 O.2       5 UNK        -0.5220 
     39 N          27.9527   28.3983    5.6183 N.am      6 UNK        -0.4450 
     40 CA         28.0146   29.7838    6.0976 C.3       6 UNK         0.0367 
     41 CB         26.7030   30.1220    6.8246 C.3       6 UNK        -0.1929 
     42 C          28.2991   30.8271    4.9975 C.2       6 UNK         0.5070 
     43 O          28.8249   31.8963    5.3094 O.2       6 UNK        -0.5237 
     44 N          27.9544   30.5045    3.7432 N.am      7 UNK        -0.4739 
     45 CA         28.1942   31.3394    2.5665 C.3       7 UNK         0.0276 
     46 CB         26.9381   31.2986    1.6783 C.3       7 UNK        -0.1927 
     47 C          29.4306   30.8915    1.7659 C.2       7 UNK         0.5013 
     48 O          29.7806   31.5654    0.7946 O.2       7 UNK        -0.5193 
     49 N          30.0715   29.7760    2.1471 N.am      8 UNK        -0.4253 
     50 CA         31.1985   29.1769    1.4295 C.3       8 UNK         0.0242 
     51 CB         31.2502   27.6679    1.7187 C.3       8 UNK        -0.2000 
     52 C          32.5245   29.8912    1.7440 C.2       8 UNK         0.4948 
     53 O          33.4156   29.3078    2.3659 O.2       8 UNK        -0.5275 
     54 N          32.6234   31.1510    1.2961 N.am      9 UNK        -0.4246 
     55 CA         33.7857   32.0410    1.3778 C.3       9 UNK         0.0261 
     56 CB         34.8671   31.5937    0.3671 C.3       9 UNK        -0.1959 
     57 C          34.2956   32.1834    2.8238 C.2       9 UNK         0.5033 
     58 O          33.5968   32.7756    3.6479 O.2       9 UNK        -0.5390 
     59 N          35.4748   31.6165    3.1140 N.am      10 UNK        -0.4215 
     60 CA         36.1193   31.6037    4.4296 C.3       10 UNK         0.0240 
     61 CB         37.5073   30.9542    4.3038 C.3       10 UNK        -0.1982 
     62 C          35.3017   30.9100    5.5351 C.2       10 UNK         0.4970 
     63 O          35.4730   31.2639    6.7028 O.2       10 UNK        -0.4916 
     64 N          34.4335   29.9587    5.1650 N.am      11 UNK        -0.4279 
     65 CA         33.4893   29.3146    6.0902 C.3       11 UNK         0.1003 
     66 C          32.2156   30.1636    6.3780 C.2       11 UNK         0.5709 
     67 N          31.9503   31.2531    5.6639 N.am      11 UNK        -0.7358 
     68 O          31.4685   29.8435    7.2994 O.2       11 UNK        -0.4999 
     69 C69        33.1255   27.8766    5.6388 C.3       12 UNK        -0.0954 
     70 S70        34.5626   26.7537    5.6304 S.3       12 UNK        -0.2268 
     71 C71        34.5805   26.1854    3.8937 C.3       12 UNK         0.0203 
     72 H72        26.5124   23.7716    1.5178 H         1 UNK         0.0888 
     73 H73        27.7140   22.7495    2.3009 H         1 UNK         0.0888 
     74 H74        28.1399   24.3944    1.8270 H         1 UNK         0.0888 
     75 H75        29.3075   24.5235   -0.0773 H         1 UNK         0.3017 
     76 H76        29.8644   22.2571   -1.6365 H         1 UNK         0.0873 
     77 H77        30.5390   24.9265   -2.8507 H         1 UNK         0.0745 
     78 H78        31.5213   23.5100   -2.6508 H         1 UNK         0.0745 
     79 H79        31.7024   22.7090    0.0718 H         1 UNK         0.0705 
     80 H80        33.3039   23.3594   -0.1813 H         1 UNK         0.0705 
     81 H81        34.0615   25.2966    1.4170 H         1 UNK         0.1334 
     82 H82        32.6555   24.8449    5.4498 H         1 UNK         0.1417 
     83 H83        30.7738   22.6835    2.2754 H         1 UNK         0.1562 
     84 H84        31.0696   23.1611    5.9947 H         1 UNK         0.0748 
     85 H85        30.7278   21.9429    4.7981 H         1 UNK         0.0748 
     86 H86        30.0943   25.4653    5.8829 H         1 UNK         0.0940 
     87 H87        28.4366   25.3488    6.4105 H         1 UNK         0.0940 
     88 H88        29.3193   26.1968    3.6045 H         1 UNK         0.0703 
     89 H89        26.7801   25.3909    4.4046 H         1 UNK         0.3081 
     90 H90        25.1398   25.4411    2.7804 H         1 UNK         0.0719 
     91 H91        24.3969   28.3536    3.4577 H         1 UNK         0.0809 
     92 H92        23.2426   27.0393    3.2456 H         1 UNK         0.0809 
     93 H93        24.3816   26.9992    4.5807 H         1 UNK         0.0809 
     94 H94        25.4376   27.8180    1.0193 H         1 UNK         0.2990 
     95 H95        23.7773   26.6898   -1.5609 H         1 UNK         0.0690 
     96 H96        24.8545   28.7915   -0.6990 H         1 UNK         0.0788 
     97 H97        25.4462   28.4190   -2.2982 H         1 UNK         0.0788 
     98 H98        26.4551   28.0735   -0.9010 H         1 UNK         0.0788 
     99 H99        26.0031   24.9570   -1.4293 H         1 UNK         0.2993 
    100 H100       26.0421   23.6560   -3.9761 H         1 UNK         0.0949 
    101 H101       27.7691   24.2076   -5.7149 H         1 UNK         0.0767 
    102 H102       26.2852   25.0951   -6.0035 H         1 UNK         0.0767 
    103 H103       27.6667   25.9140   -5.2840 H         1 UNK         0.0767 
    104 H104       27.9151   25.1402   -2.3443 H         1 UNK         0.3013 
    105 H105       27.0769   27.9129    5.7442 H         1 UNK         0.3121 
    106 H106       28.8312   29.8447    6.8190 H         1 UNK         0.0774 
    107 H107       26.7274   31.1392    7.2184 H         1 UNK         0.0815 
    108 H108       25.8423   30.0518    6.1582 H         1 UNK         0.0815 
    109 H109       26.5322   29.4549    7.6697 H         1 UNK         0.0815 
    110 H110       27.5696   29.5838    3.5574 H         1 UNK         0.2987 
    111 H111       28.3643   32.3753    2.8678 H         1 UNK         0.0949 
    112 H112       26.7384   30.2925    1.3077 H         1 UNK         0.0806 
    113 H113       26.0564   31.6373    2.2223 H         1 UNK         0.0806 
    114 H114       27.0507   31.9488    0.8097 H         1 UNK         0.0806 
    115 H115       29.7913   29.3162    3.0064 H         1 UNK         0.3010 
    116 H116       31.0247   29.2852    0.3565 H         1 UNK         0.0829 
    117 H117       30.3233   27.1725    1.4300 H         1 UNK         0.0813 
    118 H118       32.0581   27.2025    1.1551 H         1 UNK         0.0813 
    119 H119       31.4340   27.4536    2.7696 H         1 UNK         0.0813 
    120 H120       31.7869   31.5482    0.8779 H         1 UNK         0.3038 
    121 H121       33.4418   33.0319    1.0776 H         1 UNK         0.0769 
    122 H122       35.2154   30.5769    0.5529 H         1 UNK         0.0811 
    123 H123       35.7330   32.2569    0.3927 H         1 UNK         0.0811 
    124 H124       34.4792   31.6214   -0.6513 H         1 UNK         0.0811 
    125 H125       35.9491   31.1191    2.3744 H         1 UNK         0.3204 
    126 H126       36.2542   32.6436    4.7343 H         1 UNK         0.0748 
    127 H127       38.0285   30.9576    5.2623 H         1 UNK         0.0771 
    128 H128       37.4383   29.9164    3.9746 H         1 UNK         0.0771 
    129 H129       38.1363   31.4924    3.5944 H         1 UNK         0.0771 
    130 H130       34.3107   29.7390    4.1818 H         1 UNK         0.2980 
    131 H131       33.9858   29.2163    7.0575 H         1 UNK         0.0545 
    132 H132       31.0976   31.7602    5.8494 H         1 UNK         0.3459 
    133 H133       32.5807   31.5799    4.9412 H         1 UNK         0.3459 
    134 H134       32.3779   27.4387    6.3026 H         1 UNK         0.0616 
    135 H135       32.6735   27.9003    4.6479 H         1 UNK         0.0616 
    136 H136       34.5456   27.0594    3.2424 H         1 UNK         0.0634 
    137 H137       35.5442   25.7082    3.7122 H         1 UNK         0.0634 
@<TRIPOS>BOND
     1    1    2 1    
     2    1   72 1    
     3    1   73 1    
     4    1   74 1    
     5    2    3 2    
     6    2    4 am   BACKBONE|DICT|INTERRES
     7    4    5 1    
     8    4   75 1    
     9    5    6 1    
    10    5   35 1    
    11    5   76 1    
    12    6    7 1    
    13    6   77 1    
    14    6   78 1    
    15    7    8 1    
    16    8    9 1    
    17    8   79 1    
    18    8   80 1    
    19    9   10 ar   
    20    9   14 ar   
    21   10   11 ar   
    22   10   81 1    
    23   11   12 ar   
    24   11   71 1    
    25   12   13 ar   
    26   12   82 1    
    27   13   14 ar   
    28   13   15 1    
    29   14   83 1    
    30   15   16 1    
    31   15   84 1    
    32   15   85 1    
    33   16   17 1    
    34   17   18 1    
    35   17   86 1    
    36   17   87 1    
    37   18   19 1    
    38   18   37 1    
    39   18   88 1    
    40   19   20 am   BACKBONE|DICT|INTERRES
    41   19   89 1    
    42   20   21 2    
    43   20   22 1    
    44   22   23 1    
    45   22   24 1    
    46   22   90 1    
    47   23   91 1    
    48   23   92 1    
    49   23   93 1    
    50   24   25 am   BACKBONE|DICT|INTERRES
    51   24   94 1    
    52   25   26 2    
    53   25   27 1    
    54   27   28 1    
    55   27   29 1    
    56   27   95 1    
    57   28   96 1    
    58   28   97 1    
    59   28   98 1    
    60   29   30 am   BACKBONE|DICT|INTERRES
    61   29   99 1    
    62   30   31 2    
    63   30   32 1    
    64   32   33 1    
    65   32   34 1    
    66   32  100 1    
    67   33  101 1    
    68   33  102 1    
    69   33  103 1    
    70   34   35 am   BACKBONE|DICT|INTERRES
    71   34  104 1    
    72   35   36 2    
    73   37   38 2    
    74   37   39 am   BACKBONE|DICT|INTERRES
    75   39   40 1    
    76   39  105 1    
    77   40   41 1    
    78   40   42 1    
    79   40  106 1    
    80   41  107 1    
    81   41  108 1    
    82   41  109 1    
    83   42   43 2    
    84   42   44 am   BACKBONE|DICT|INTERRES
    85   44   45 1    
    86   44  110 1    
    87   45   46 1    
    88   45   47 1    
    89   45  111 1    
    90   46  112 1    
    91   46  113 1    
    92   46  114 1    
    93   47   48 2    
    94   47   49 am   BACKBONE|DICT|INTERRES
    95   49   50 1    
    96   49  115 1    
    97   50   51 1    
    98   50   52 1    
    99   50  116 1    
   100   51  117 1    
   101   51  118 1    
   102   51  119 1    
   103   52   53 2    
   104   52   54 am   BACKBONE|DICT|INTERRES
   105   54   55 1    
   106   54  120 1    
   107   55   56 1    
   108   55   57 1    
   109   55  121 1    
   110   56  122 1    
   111   56  123 1    
   112   56  124 1    
   113   57   58 2    
   114   57   59 am   BACKBONE|DICT|INTERRES
   115   59   60 1    
   116   59  125 1    
   117   60   61 1    
   118   60   62 1    
   119   60  126 1    
   120   61  127 1    
   121   61  128 1    
   122   61  129 1    
   123   62   63 2    
   124   62   64 am   BACKBONE|DICT|INTERRES
   125   64   65 1    
   126   64  130 1    
   127   65   66 1    
   128   65   69 1    
   129   65  131 1    
   130   66   67 am   BACKBONE|DICT|INTERRES
   131   66   68 2    
   132   67  132 1    
   133   67  133 1    
   134   69   70 1    
   135   69  134 1    
   136   69  135 1    
   137   70   71 1    
   138   71  136 1    
   139   71  137 1    
@<TRIPOS>SUBSTRUCTURE
     1 UNK         1 GROUP             0       ****    0 ROOT    
