@<TRIPOS>MOLECULE
3R136
137   139    1
SMALL
USER_CHARGES


@<TRIPOS>ATOM
      1 CA         31.2945   27.2607    0.9052 C.3       0 UNK        -0.1979 
      2 C          31.8983   26.8709   -0.4407 C.2       0 UNK         0.4864 
      3 O          32.8152   27.5397   -0.9120 O.2       0 UNK        -0.5359 
      4 N          31.4327   25.7981   -1.0978 N.am      1 UNK        -0.4318 
      5 CA         30.3562   24.8942   -0.6686 C.3       1 UNK         0.0824 
      6 C6         30.4873   23.4918   -1.3249 C.3       12 UNK        -0.0944 
      7 S7         32.0219   22.5056   -1.1072 S.3       12 UNK        -0.2672 
      8 C8         33.1030   23.3310    0.1201 C.3       12 UNK         0.0333 
      9 C9         32.6190   23.3544    1.5710 C.ar      12 UNK        -0.0807 
     10 C10        33.4296   23.9810    2.5227 C.ar      12 UNK        -0.0894 
     11 C11        33.0559   24.0319    3.8697 C.ar      12 UNK        -0.0804 
     12 C12        31.8425   23.4605    4.2647 C.ar      12 UNK        -0.0824 
     13 C13        31.0265   22.8163    3.3296 C.ar      12 UNK        -0.0762 
     14 C14        31.4250   22.7564    1.9917 C.ar      12 UNK        -0.0782 
     15 C15        29.7344   22.1393    3.7635 C.3       12 UNK         0.0230 
     16 S16        28.2773   22.8302    2.9190 S.3       12 UNK        -0.2608 
     17 C17        28.0721   24.4266    3.7797 C.3       12 UNK        -0.0989 
     18 CA         27.7371   25.6022    2.8167 C.3       5 UNK         0.0716 
     19 N          26.5952   25.3265    1.9379 N.am      5 UNK        -0.4135 
     20 C          25.3297   25.0933    2.3159 C.2       4 UNK         0.5031 
     21 O          24.9362   25.1164    3.4841 O.2       4 UNK        -0.5229 
     22 CA         24.3437   24.7806    1.1741 C.3       4 UNK         0.0329 
     23 CB         22.9162   24.4589    1.6680 C.3       4 UNK        -0.2001 
     24 N          24.3278   25.8449    0.1647 N.am      4 UNK        -0.4303 
     25 C          23.9986   27.1341    0.3467 C.2       3 UNK         0.5044 
     26 O          23.5542   27.5938    1.3987 O.2       3 UNK        -0.5152 
     27 CA         24.2169   28.0631   -0.8656 C.3       3 UNK         0.0319 
     28 CB         24.2291   29.5594   -0.4895 C.3       3 UNK        -0.2001 
     29 N          25.4082   27.7165   -1.6533 N.am      3 UNK        -0.4354 
     30 C          26.6778   27.6496   -1.2243 C.2       2 UNK         0.4964 
     31 O          27.0411   27.9227   -0.0752 O.2       2 UNK        -0.5047 
     32 CA         27.6984   27.2054   -2.2884 C.3       2 UNK         0.0288 
     33 CB         28.1276   28.3876   -3.1729 C.3       2 UNK        -0.2113 
     34 N          28.9025   26.5700   -1.7535 N.am      2 UNK        -0.4145 
     35 C          28.9535   25.4707   -0.9873 C.2       1 UNK         0.5006 
     36 O          27.9512   24.8919   -0.5624 O.2       1 UNK        -0.5103 
     37 C          27.5638   26.9426    3.5635 C.2       5 UNK         0.5055 
     38 O          27.7410   26.9848    4.7833 O.2       5 UNK        -0.5220 
     39 N          27.2105   28.0101    2.8318 N.am      6 UNK        -0.4450 
     40 CA         26.9542   29.3338    3.4082 C.3       6 UNK         0.0367 
     41 CB         25.4405   29.5698    3.5327 C.3       6 UNK        -0.1929 
     42 C          27.6218   30.4644    2.6184 C.2       6 UNK         0.5070 
     43 O          28.2145   31.3515    3.2342 O.2       6 UNK        -0.5237 
     44 N          27.5324   30.4365    1.2825 N.am      7 UNK        -0.4739 
     45 CA         28.1127   31.4673    0.4216 C.3       7 UNK         0.0276 
     46 CB         27.4205   31.4632   -0.9493 C.3       7 UNK        -0.1927 
     47 C          29.6269   31.2516    0.3047 C.2       7 UNK         0.5013 
     48 O          30.0512   30.1964   -0.1679 O.2       7 UNK        -0.5193 
     49 N          30.3959   32.2417    0.7815 N.am      8 UNK        -0.4253 
     50 CA         31.8602   32.2518    0.9128 C.3       8 UNK         0.0242 
     51 CB         32.5454   32.1491   -0.4671 C.3       8 UNK        -0.2000 
     52 C          32.4077   31.2140    1.9161 C.2       8 UNK         0.4948 
     53 O          33.6019   30.9095    1.8822 O.2       8 UNK        -0.5275 
     54 N          31.5552   30.7049    2.8184 N.am      9 UNK        -0.4246 
     55 CA         31.8871   29.6781    3.8095 C.3       9 UNK         0.0261 
     56 CB         30.6037   28.9388    4.2218 C.3       9 UNK        -0.1959 
     57 C          32.6601   30.2420    5.0149 C.2       9 UNK         0.5033 
     58 O          32.2354   30.0744    6.1599 O.2       9 UNK        -0.5390 
     59 N          33.8164   30.8619    4.7426 N.am      10 UNK        -0.4215 
     60 CA         34.7832   31.3338    5.7436 C.3       10 UNK         0.0240 
     61 CB         35.9019   32.1161    5.0372 C.3       10 UNK        -0.1982 
     62 C          35.3726   30.1954    6.6007 C.2       10 UNK         0.4970 
     63 O          35.8061   30.4408    7.7266 O.2       10 UNK        -0.4916 
     64 N          35.3442   28.9739    6.0559 N.am      11 UNK        -0.4279 
     65 CA         35.6157   27.7063    6.7393 C.3       11 UNK         0.1003 
     66 C          34.5659   27.2924    7.8150 C.2       11 UNK         0.5709 
     67 N          33.4045   27.9314    7.9094 N.am      11 UNK        -0.7358 
     68 O          34.8198   26.3733    8.5899 O.2       11 UNK        -0.4999 
     69 C69        35.8625   26.5782    5.7034 C.3       12 UNK        -0.0954 
     70 S70        34.4847   26.3419    4.5191 S.3       12 UNK        -0.2268 
     71 C71        33.9989   24.6309    4.9067 C.3       12 UNK         0.0203 
     72 H72        31.7142   28.2102    1.2329 H         1 UNK         0.0888 
     73 H73        30.2156   27.3952    0.8355 H         1 UNK         0.0888 
     74 H74        31.5174   26.5124    1.6658 H         1 UNK         0.0888 
     75 H75        31.8643   25.5554   -1.9787 H         1 UNK         0.3017 
     76 H76        30.4008   24.7687    0.4130 H         1 UNK         0.0873 
     77 H77        29.6762   22.8516   -0.9708 H         1 UNK         0.0745 
     78 H78        30.3317   23.5775   -2.4024 H         1 UNK         0.0745 
     79 H79        34.0495   22.7886    0.1084 H         1 UNK         0.0705 
     80 H80        33.3530   24.3370   -0.2099 H         1 UNK         0.0705 
     81 H81        34.3704   24.4191    2.2171 H         1 UNK         0.1334 
     82 H82        31.5496   23.4870    5.3055 H         1 UNK         0.1417 
     83 H83        30.7885   22.2399    1.2880 H         1 UNK         0.1562 
     84 H84        29.5928   22.2074    4.8434 H         1 UNK         0.0748 
     85 H85        29.8013   21.0756    3.5307 H         1 UNK         0.0748 
     86 H86        28.9852   24.6530    4.3334 H         1 UNK         0.0940 
     87 H87        27.2895   24.3051    4.5308 H         1 UNK         0.0940 
     88 H88        28.5965   25.7375    2.1591 H         1 UNK         0.0703 
     89 H89        26.8299   25.2602    0.9510 H         1 UNK         0.3081 
     90 H90        24.7253   23.8875    0.6764 H         1 UNK         0.0719 
     91 H91        22.2547   24.2136    0.8374 H         1 UNK         0.0809 
     92 H92        22.4745   25.2932    2.2138 H         1 UNK         0.0809 
     93 H93        22.9233   23.6009    2.3413 H         1 UNK         0.0809 
     94 H94        24.6862   25.5851   -0.7435 H         1 UNK         0.2990 
     95 H95        23.3596   27.9003   -1.5206 H         1 UNK         0.0690 
     96 H96        24.3405   30.1881   -1.3727 H         1 UNK         0.0788 
     97 H97        25.0406   29.7978    0.1952 H         1 UNK         0.0788 
     98 H98        23.2975   29.8502   -0.0026 H         1 UNK         0.0788 
     99 H99        25.2251   27.4825   -2.6199 H         1 UNK         0.2993 
    100 H100       27.2076   26.4632   -2.9217 H         1 UNK         0.0949 
    101 H101       27.2680   28.9548   -3.5331 H         1 UNK         0.0767 
    102 H102       28.7773   29.0778   -2.6332 H         1 UNK         0.0767 
    103 H103       28.6732   28.0425   -4.0514 H         1 UNK         0.0767 
    104 H104       29.7801   26.9866   -2.0273 H         1 UNK         0.3013 
    105 H105       27.1057   27.9105    1.8241 H         1 UNK         0.3121 
    106 H106       27.3744   29.3879    4.4147 H         1 UNK         0.0774 
    107 H107       25.2321   30.5340    3.9981 H         1 UNK         0.0815 
    108 H108       24.9486   29.5637    2.5610 H         1 UNK         0.0815 
    109 H109       24.9699   28.8023    4.1474 H         1 UNK         0.0815 
    110 H110       27.1454   29.6226    0.8155 H         1 UNK         0.2987 
    111 H111       27.9272   32.4454    0.8721 H         1 UNK         0.0949 
    112 H112       27.4474   30.4800   -1.4112 H         1 UNK         0.0806 
    113 H113       26.3760   31.7618   -0.8632 H         1 UNK         0.0806 
    114 H114       27.9015   32.1620   -1.6348 H         1 UNK         0.0806 
    115 H115       29.9292   33.0534    1.1639 H         1 UNK         0.3010 
    116 H116       32.1155   33.2267    1.3307 H         1 UNK         0.0829 
    117 H117       32.1485   32.8861   -1.1650 H         1 UNK         0.0813 
    118 H118       33.6183   32.3274   -0.3855 H         1 UNK         0.0813 
    119 H119       32.4168   31.1611   -0.9109 H         1 UNK         0.0813 
    120 H120       30.6010   31.0412    2.8217 H         1 UNK         0.3038 
    121 H121       32.5444   28.9432    3.3399 H         1 UNK         0.0769 
    122 H122       30.8265   28.1100    4.8955 H         1 UNK         0.0811 
    123 H123       30.0958   28.5203    3.3543 H         1 UNK         0.0811 
    124 H124       29.9052   29.5987    4.7373 H         1 UNK         0.0811 
    125 H125       34.0672   30.9611    3.7612 H         1 UNK         0.3204 
    126 H126       34.2587   32.0126    6.4191 H         1 UNK         0.0748 
    127 H127       36.6241   32.5023    5.7581 H         1 UNK         0.0771 
    128 H128       36.4483   31.4901    4.3305 H         1 UNK         0.0771 
    129 H129       35.5036   32.9709    4.4901 H         1 UNK         0.0771 
    130 H130       34.9743   28.8798    5.1224 H         1 UNK         0.2980 
    131 H131       36.5488   27.8444    7.2884 H         1 UNK         0.0545 
    132 H132       33.1604   28.6874    7.2793 H         1 UNK         0.3459 
    133 H133       32.7486   27.6454    8.6180 H         1 UNK         0.3459 
    134 H134       36.0936   25.6390    6.2090 H         1 UNK         0.0616 
    135 H135       36.7533   26.8153    5.1200 H         1 UNK         0.0616 
    136 H136       34.8914   24.0052    4.9539 H         1 UNK         0.0634 
    137 H137       33.5512   24.6125    5.9018 H         1 UNK         0.0634 
@<TRIPOS>BOND
     1    1    2 1    
     2    1   72 1    
     3    1   73 1    
     4    1   74 1    
     5    2    3 2    
     6    2    4 am   BACKBONE|DICT|INTERRES
     7    4    5 1    
     8    4   75 1    
     9    5    6 1    
    10    5   35 1    
    11    5   76 1    
    12    6    7 1    
    13    6   77 1    
    14    6   78 1    
    15    7    8 1    
    16    8    9 1    
    17    8   79 1    
    18    8   80 1    
    19    9   10 ar   
    20    9   14 ar   
    21   10   11 ar   
    22   10   81 1    
    23   11   12 ar   
    24   11   71 1    
    25   12   13 ar   
    26   12   82 1    
    27   13   14 ar   
    28   13   15 1    
    29   14   83 1    
    30   15   16 1    
    31   15   84 1    
    32   15   85 1    
    33   16   17 1    
    34   17   18 1    
    35   17   86 1    
    36   17   87 1    
    37   18   19 1    
    38   18   37 1    
    39   18   88 1    
    40   19   20 am   BACKBONE|DICT|INTERRES
    41   19   89 1    
    42   20   21 2    
    43   20   22 1    
    44   22   23 1    
    45   22   24 1    
    46   22   90 1    
    47   23   91 1    
    48   23   92 1    
    49   23   93 1    
    50   24   25 am   BACKBONE|DICT|INTERRES
    51   24   94 1    
    52   25   26 2    
    53   25   27 1    
    54   27   28 1    
    55   27   29 1    
    56   27   95 1    
    57   28   96 1    
    58   28   97 1    
    59   28   98 1    
    60   29   30 am   BACKBONE|DICT|INTERRES
    61   29   99 1    
    62   30   31 2    
    63   30   32 1    
    64   32   33 1    
    65   32   34 1    
    66   32  100 1    
    67   33  101 1    
    68   33  102 1    
    69   33  103 1    
    70   34   35 am   BACKBONE|DICT|INTERRES
    71   34  104 1    
    72   35   36 2    
    73   37   38 2    
    74   37   39 am   BACKBONE|DICT|INTERRES
    75   39   40 1    
    76   39  105 1    
    77   40   41 1    
    78   40   42 1    
    79   40  106 1    
    80   41  107 1    
    81   41  108 1    
    82   41  109 1    
    83   42   43 2    
    84   42   44 am   BACKBONE|DICT|INTERRES
    85   44   45 1    
    86   44  110 1    
    87   45   46 1    
    88   45   47 1    
    89   45  111 1    
    90   46  112 1    
    91   46  113 1    
    92   46  114 1    
    93   47   48 2    
    94   47   49 am   BACKBONE|DICT|INTERRES
    95   49   50 1    
    96   49  115 1    
    97   50   51 1    
    98   50   52 1    
    99   50  116 1    
   100   51  117 1    
   101   51  118 1    
   102   51  119 1    
   103   52   53 2    
   104   52   54 am   BACKBONE|DICT|INTERRES
   105   54   55 1    
   106   54  120 1    
   107   55   56 1    
   108   55   57 1    
   109   55  121 1    
   110   56  122 1    
   111   56  123 1    
   112   56  124 1    
   113   57   58 2    
   114   57   59 am   BACKBONE|DICT|INTERRES
   115   59   60 1    
   116   59  125 1    
   117   60   61 1    
   118   60   62 1    
   119   60  126 1    
   120   61  127 1    
   121   61  128 1    
   122   61  129 1    
   123   62   63 2    
   124   62   64 am   BACKBONE|DICT|INTERRES
   125   64   65 1    
   126   64  130 1    
   127   65   66 1    
   128   65   69 1    
   129   65  131 1    
   130   66   67 am   BACKBONE|DICT|INTERRES
   131   66   68 2    
   132   67  132 1    
   133   67  133 1    
   134   69   70 1    
   135   69  134 1    
   136   69  135 1    
   137   70   71 1    
   138   71  136 1    
   139   71  137 1    
@<TRIPOS>SUBSTRUCTURE
     1 UNK         1 GROUP             0       ****    0 ROOT    
