@<TRIPOS>MOLECULE
3R136
137   139    1
SMALL
USER_CHARGES


@<TRIPOS>ATOM
      1 CA         28.4657   18.2839   -1.3699 C.3       0 UNK        -0.1979 
      2 C          28.5574   19.7959   -1.5136 C.2       0 UNK         0.4864 
      3 O          28.3316   20.3198   -2.6051 O.2       0 UNK        -0.5359 
      4 N          28.8911   20.4967   -0.4211 N.am      1 UNK        -0.4318 
      5 CA         29.0265   21.9582   -0.3623 C.3       1 UNK         0.0824 
      6 C6         29.6694   22.4212    0.9643 C.3       12 UNK        -0.0944 
      7 S7         31.3673   21.7928    1.1901 S.3       12 UNK        -0.2672 
      8 C8         32.3582   23.3078    0.9225 C.3       12 UNK         0.0333 
      9 C9         32.1804   24.4314    1.9503 C.ar      12 UNK        -0.0807 
     10 C10        32.8548   25.6372    1.7338 C.ar      12 UNK        -0.0894 
     11 C11        32.7287   26.7020    2.6314 C.ar      12 UNK        -0.0804 
     12 C12        31.8906   26.5722    3.7413 C.ar      12 UNK        -0.0824 
     13 C13        31.1946   25.3832    3.9649 C.ar      12 UNK        -0.0762 
     14 C14        31.3683   24.3108    3.0866 C.ar      12 UNK        -0.0782 
     15 C15        30.2429   25.2430    5.1435 C.3       12 UNK         0.0230 
     16 S16        28.5159   25.1060    4.5730 S.3       12 UNK        -0.2608 
     17 C17        27.9001   26.8156    4.7359 C.3       12 UNK        -0.0989 
     18 CA         28.4222   27.7987    3.6588 C.3       5 UNK         0.0716 
     19 N          28.2144   27.3215    2.2882 N.am      5 UNK        -0.4135 
     20 C          28.7006   27.9319    1.1976 C.2       4 UNK         0.5031 
     21 O          29.4025   28.9433    1.2387 O.2       4 UNK        -0.5229 
     22 CA         28.3477   27.3360   -0.1776 C.3       4 UNK         0.0329 
     23 CB         29.4705   26.3987   -0.6476 C.3       4 UNK        -0.2001 
     24 N          27.0514   26.6445   -0.2367 N.am      4 UNK        -0.4303 
     25 C          25.8670   27.2492   -0.0398 C.2       3 UNK         0.5044 
     26 O          25.7608   28.4434    0.2364 O.2       3 UNK        -0.5152 
     27 CA         24.5708   26.4288   -0.1977 C.3       3 UNK         0.0319 
     28 CB         23.6905   27.0164   -1.3152 C.3       3 UNK        -0.2001 
     29 N          24.7693   25.0051   -0.4683 N.am      3 UNK        -0.4354 
     30 C          25.1185   24.0802    0.4338 C.2       2 UNK         0.4964 
     31 O          25.3669   24.3333    1.6131 O.2       2 UNK        -0.5047 
     32 CA         25.2225   22.6235   -0.0647 C.3       2 UNK         0.0288 
     33 CB         24.6238   22.3892   -1.4716 C.3       2 UNK        -0.2113 
     34 N          26.5995   22.1220   -0.0174 N.am      2 UNK        -0.4145 
     35 C          27.6852   22.6905   -0.5669 C.2       1 UNK         0.5006 
     36 O          27.6658   23.7481   -1.2000 O.2       1 UNK        -0.5103 
     37 C          27.7825   29.1874    3.8508 C.2       5 UNK         0.5055 
     38 O          26.6133   29.3680    3.5053 O.2       5 UNK        -0.5220 
     39 N          28.5664   30.1397    4.3712 N.am      6 UNK        -0.4450 
     40 CA         28.2720   31.5649    4.5675 C.3       6 UNK         0.0367 
     41 CB         26.9736   31.8096    5.3615 C.3       6 UNK        -0.1929 
     42 C          28.3068   32.3747    3.2609 C.2       6 UNK         0.5070 
     43 O          28.8593   33.4744    3.2646 O.2       6 UNK        -0.5237 
     44 N          27.7812   31.8185    2.1602 N.am      7 UNK        -0.4739 
     45 CA         27.8196   32.4083    0.8165 C.3       7 UNK         0.0276 
     46 CB         26.9946   31.5460   -0.1501 C.3       7 UNK        -0.1927 
     47 C          29.2513   32.5977    0.2848 C.2       7 UNK         0.5013 
     48 O          29.5491   33.6444   -0.2912 O.2       7 UNK        -0.5193 
     49 N          30.1142   31.6049    0.5327 N.am      8 UNK        -0.4253 
     50 CA         31.5546   31.6432    0.2791 C.3       8 UNK         0.0242 
     51 CB         31.9393   30.4276   -0.5856 C.3       8 UNK        -0.2000 
     52 C          32.3368   31.6969    1.6065 C.2       8 UNK         0.4948 
     53 O          33.4560   31.1880    1.6715 O.2       8 UNK        -0.5275 
     54 N          31.7389   32.3206    2.6345 N.am      9 UNK        -0.4246 
     55 CA         32.2038   32.4141    4.0235 C.3       9 UNK         0.0261 
     56 CB         33.5813   33.1111    4.1158 C.3       9 UNK        -0.1959 
     57 C          32.1411   31.0564    4.7535 C.2       9 UNK         0.5033 
     58 O          31.3815   30.1715    4.3498 O.2       9 UNK        -0.5390 
     59 N          32.8820   30.9340    5.8611 N.am      10 UNK        -0.4215 
     60 CA         32.8958   29.7425    6.7140 C.3       10 UNK         0.0240 
     61 CB         33.2033   30.1670    8.1599 C.3       10 UNK        -0.1982 
     62 C          33.8950   28.6675    6.2529 C.2       10 UNK         0.4970 
     63 O          33.7175   27.5074    6.6235 O.2       10 UNK        -0.4916 
     64 N          34.9297   29.0650    5.4949 N.am      11 UNK        -0.4279 
     65 CA         36.0619   28.2190    5.0643 C.3       11 UNK         0.1003 
     66 C          36.9419   27.6703    6.2341 C.2       11 UNK         0.5709 
     67 N          36.9058   28.2636    7.4221 N.am      11 UNK        -0.7358 
     68 O          37.7022   26.7203    6.0610 O.2       11 UNK        -0.4999 
     69 C69        35.6425   27.1200    4.0416 C.3       12 UNK        -0.0954 
     70 S70        35.2884   27.7990    2.3857 S.3       12 UNK        -0.2268 
     71 C71        33.4796   28.0036    2.3963 C.3       12 UNK         0.0203 
     72 H72        27.4593   17.9444   -1.6134 H         1 UNK         0.0888 
     73 H73        29.1636   17.7994   -2.0522 H         1 UNK         0.0888 
     74 H74        28.6988   17.9551   -0.3573 H         1 UNK         0.0888 
     75 H75        29.1000   20.0061    0.4370 H         1 UNK         0.3017 
     76 H76        29.6803   22.2622   -1.1829 H         1 UNK         0.0873 
     77 H77        29.6833   23.5096    1.0190 H         1 UNK         0.0745 
     78 H78        29.0717   22.0918    1.8166 H         1 UNK         0.0745 
     79 H79        32.1282   23.6958   -0.0711 H         1 UNK         0.0705 
     80 H80        33.4107   23.0216    0.9052 H         1 UNK         0.0705 
     81 H81        33.4914   25.7484    0.8664 H         1 UNK         0.1334 
     82 H82        31.7756   27.4014    4.4258 H         1 UNK         0.1417 
     83 H83        30.8348   23.3944    3.2912 H         1 UNK         0.1562 
     84 H84        30.3490   26.0757    5.8406 H         1 UNK         0.0748 
     85 H85        30.5012   24.3423    5.7021 H         1 UNK         0.0748 
     86 H86        28.1483   27.1781    5.7355 H         1 UNK         0.0940 
     87 H87        26.8095   26.7665    4.7012 H         1 UNK         0.0940 
     88 H88        29.4985   27.9067    3.7938 H         1 UNK         0.0703 
     89 H89        27.6297   26.5067    2.1768 H         1 UNK         0.3081 
     90 H90        28.2973   28.1702   -0.8805 H         1 UNK         0.0719 
     91 H91        30.4298   26.9183   -0.6665 H         1 UNK         0.0809 
     92 H92        29.2842   26.0242   -1.6542 H         1 UNK         0.0809 
     93 H93        29.5813   25.5432    0.0165 H         1 UNK         0.0809 
     94 H94        27.0667   25.6629   -0.4930 H         1 UNK         0.2990 
     95 H95        24.0249   26.5217    0.7437 H         1 UNK         0.0690 
     96 H96        22.7383   26.4906   -1.3896 H         1 UNK         0.0788 
     97 H97        24.1829   26.9616   -2.2869 H         1 UNK         0.0788 
     98 H98        23.4614   28.0661   -1.1255 H         1 UNK         0.0788 
     99 H99        24.6278   24.7035   -1.4218 H         1 UNK         0.2993 
    100 H100       24.6465   22.0241    0.6423 H         1 UNK         0.0949 
    101 H101       23.5830   22.7128   -1.5199 H         1 UNK         0.0767 
    102 H102       25.1771   22.9147   -2.2510 H         1 UNK         0.0767 
    103 H103       24.6368   21.3290   -1.7255 H         1 UNK         0.0767 
    104 H104       26.7352   21.2696    0.5074 H         1 UNK         0.3013 
    105 H105       29.5533   29.9139    4.4984 H         1 UNK         0.3121 
    106 H106       29.0925   31.9381    5.1821 H         1 UNK         0.0774 
    107 H107       26.8799   32.8629    5.6282 H         1 UNK         0.0815 
    108 H108       26.0836   31.5462    4.7898 H         1 UNK         0.0815 
    109 H109       26.9607   31.2375    6.2891 H         1 UNK         0.0815 
    110 H110       27.3402   30.9099    2.2567 H         1 UNK         0.2987 
    111 H111       27.3562   33.3954    0.8768 H         1 UNK         0.0949 
    112 H112       25.9646   31.4375    0.1905 H         1 UNK         0.0806 
    113 H113       26.9629   31.9942   -1.1440 H         1 UNK         0.0806 
    114 H114       27.4170   30.5465   -0.2571 H         1 UNK         0.0806 
    115 H115       29.7719   30.7537    0.9780 H         1 UNK         0.3010 
    116 H116       31.8212   32.5460   -0.2739 H         1 UNK         0.0829 
    117 H117       31.4005   30.4322   -1.5330 H         1 UNK         0.0813 
    118 H118       33.0045   30.4283   -0.8200 H         1 UNK         0.0813 
    119 H119       31.7136   29.4884   -0.0807 H         1 UNK         0.0813 
    120 H120       30.8126   32.6966    2.4733 H         1 UNK         0.3038 
    121 H121       31.4799   33.0561    4.5272 H         1 UNK         0.0769 
    122 H122       34.3918   32.4632    3.7801 H         1 UNK         0.0811 
    123 H123       33.8070   33.4197    5.1368 H         1 UNK         0.0811 
    124 H124       33.6062   34.0133    3.5045 H         1 UNK         0.0811 
    125 H125       33.4529   31.7144    6.1529 H         1 UNK         0.3204 
    126 H126       31.9035   29.2855    6.7061 H         1 UNK         0.0748 
    127 H127       33.2021   29.3054    8.8294 H         1 UNK         0.0771 
    128 H128       34.1800   30.6450    8.2455 H         1 UNK         0.0771 
    129 H129       32.4543   30.8649    8.5349 H         1 UNK         0.0771 
    130 H130       34.9918   30.0375    5.2357 H         1 UNK         0.2980 
    131 H131       36.7397   28.8963    4.5439 H         1 UNK         0.0545 
    132 H132       36.3075   29.0567    7.5830 H         1 UNK         0.3459 
    133 H133       37.4877   27.9102    8.1652 H         1 UNK         0.3459 
    134 H134       34.8004   26.5334    4.4079 H         1 UNK         0.0616 
    135 H135       36.4486   26.4016    3.8873 H         1 UNK         0.0616 
    136 H136       33.1712   28.4184    1.4373 H         1 UNK         0.0634 
    137 H137       33.2206   28.7469    3.1484 H         1 UNK         0.0634 
@<TRIPOS>BOND
     1    1    2 1    
     2    1   72 1    
     3    1   73 1    
     4    1   74 1    
     5    2    3 2    
     6    2    4 am   BACKBONE|DICT|INTERRES
     7    4    5 1    
     8    4   75 1    
     9    5    6 1    
    10    5   35 1    
    11    5   76 1    
    12    6    7 1    
    13    6   77 1    
    14    6   78 1    
    15    7    8 1    
    16    8    9 1    
    17    8   79 1    
    18    8   80 1    
    19    9   10 ar   
    20    9   14 ar   
    21   10   11 ar   
    22   10   81 1    
    23   11   12 ar   
    24   11   71 1    
    25   12   13 ar   
    26   12   82 1    
    27   13   14 ar   
    28   13   15 1    
    29   14   83 1    
    30   15   16 1    
    31   15   84 1    
    32   15   85 1    
    33   16   17 1    
    34   17   18 1    
    35   17   86 1    
    36   17   87 1    
    37   18   19 1    
    38   18   37 1    
    39   18   88 1    
    40   19   20 am   BACKBONE|DICT|INTERRES
    41   19   89 1    
    42   20   21 2    
    43   20   22 1    
    44   22   23 1    
    45   22   24 1    
    46   22   90 1    
    47   23   91 1    
    48   23   92 1    
    49   23   93 1    
    50   24   25 am   BACKBONE|DICT|INTERRES
    51   24   94 1    
    52   25   26 2    
    53   25   27 1    
    54   27   28 1    
    55   27   29 1    
    56   27   95 1    
    57   28   96 1    
    58   28   97 1    
    59   28   98 1    
    60   29   30 am   BACKBONE|DICT|INTERRES
    61   29   99 1    
    62   30   31 2    
    63   30   32 1    
    64   32   33 1    
    65   32   34 1    
    66   32  100 1    
    67   33  101 1    
    68   33  102 1    
    69   33  103 1    
    70   34   35 am   BACKBONE|DICT|INTERRES
    71   34  104 1    
    72   35   36 2    
    73   37   38 2    
    74   37   39 am   BACKBONE|DICT|INTERRES
    75   39   40 1    
    76   39  105 1    
    77   40   41 1    
    78   40   42 1    
    79   40  106 1    
    80   41  107 1    
    81   41  108 1    
    82   41  109 1    
    83   42   43 2    
    84   42   44 am   BACKBONE|DICT|INTERRES
    85   44   45 1    
    86   44  110 1    
    87   45   46 1    
    88   45   47 1    
    89   45  111 1    
    90   46  112 1    
    91   46  113 1    
    92   46  114 1    
    93   47   48 2    
    94   47   49 am   BACKBONE|DICT|INTERRES
    95   49   50 1    
    96   49  115 1    
    97   50   51 1    
    98   50   52 1    
    99   50  116 1    
   100   51  117 1    
   101   51  118 1    
   102   51  119 1    
   103   52   53 2    
   104   52   54 am   BACKBONE|DICT|INTERRES
   105   54   55 1    
   106   54  120 1    
   107   55   56 1    
   108   55   57 1    
   109   55  121 1    
   110   56  122 1    
   111   56  123 1    
   112   56  124 1    
   113   57   58 2    
   114   57   59 am   BACKBONE|DICT|INTERRES
   115   59   60 1    
   116   59  125 1    
   117   60   61 1    
   118   60   62 1    
   119   60  126 1    
   120   61  127 1    
   121   61  128 1    
   122   61  129 1    
   123   62   63 2    
   124   62   64 am   BACKBONE|DICT|INTERRES
   125   64   65 1    
   126   64  130 1    
   127   65   66 1    
   128   65   69 1    
   129   65  131 1    
   130   66   67 am   BACKBONE|DICT|INTERRES
   131   66   68 2    
   132   67  132 1    
   133   67  133 1    
   134   69   70 1    
   135   69  134 1    
   136   69  135 1    
   137   70   71 1    
   138   71  136 1    
   139   71  137 1    
@<TRIPOS>SUBSTRUCTURE
     1 UNK         1 GROUP             0       ****    0 ROOT    
