@<TRIPOS>MOLECULE
3R136
137   139    1
SMALL
USER_CHARGES


@<TRIPOS>ATOM
      1 CA         28.4819   16.3242    1.8900 C.3       0 UNK        -0.1979 
      2 C          28.6041   17.8127    1.6015 C.2       0 UNK         0.4864 
      3 O          29.4879   18.2211    0.8452 O.2       0 UNK        -0.5359 
      4 N          27.7205   18.6320    2.1878 N.am      1 UNK        -0.4318 
      5 CA         27.6711   20.0887    2.0206 C.3       1 UNK         0.0824 
      6 C6         27.0070   20.7652    3.2499 C.3       12 UNK        -0.0944 
      7 S7         27.4409   22.5312    3.3813 S.3       12 UNK        -0.2672 
      8 C8         28.8439   22.4640    4.5347 C.3       12 UNK         0.0333 
      9 C9         29.5747   23.7962    4.5676 C.ar      12 UNK        -0.0807 
     10 C10        30.6875   24.0051    3.7473 C.ar      12 UNK        -0.0894 
     11 C11        31.3526   25.2335    3.7611 C.ar      12 UNK        -0.0804 
     12 C12        30.9119   26.2483    4.6124 C.ar      12 UNK        -0.0824 
     13 C13        29.7824   26.0637    5.4145 C.ar      12 UNK        -0.0762 
     14 C14        29.1252   24.8286    5.3975 C.ar      12 UNK        -0.0782 
     15 C15        29.2563   27.1991    6.2857 C.3       12 UNK         0.0230 
     16 S16        29.1138   28.7879    5.3949 S.3       12 UNK        -0.2608 
     17 C17        28.0290   28.3673    3.9843 C.3       12 UNK        -0.0989 
     18 CA         28.7309   28.4886    2.6034 C.3       5 UNK         0.0716 
     19 N          27.9218   27.8739    1.5443 N.am      5 UNK        -0.4135 
     20 C          28.3029   27.7117    0.2696 C.2       4 UNK         0.5031 
     21 O          29.3829   28.0869   -0.1911 O.2       4 UNK        -0.5229 
     22 CA         27.2881   27.0403   -0.6676 C.3       4 UNK         0.0329 
     23 CB         26.6783   28.0693   -1.6342 C.3       4 UNK        -0.2001 
     24 N          27.9437   25.9809   -1.4337 N.am      4 UNK        -0.4303 
     25 C          28.2142   24.7657   -0.9432 C.2       3 UNK         0.5044 
     26 O          27.8557   24.3798    0.1712 O.2       3 UNK        -0.5152 
     27 CA         29.0563   23.8403   -1.8354 C.3       3 UNK         0.0319 
     28 CB         30.5501   23.9924   -1.5048 C.3       3 UNK        -0.2001 
     29 N          28.6687   22.4420   -1.6510 N.am      3 UNK        -0.4354 
     30 C          27.5862   21.8722   -2.1982 C.2       2 UNK         0.4964 
     31 O          26.8356   22.4447   -2.9895 O.2       2 UNK        -0.5047 
     32 CA         27.2942   20.4140   -1.8042 C.3       2 UNK         0.0288 
     33 CB         27.9941   19.4421   -2.7684 C.3       2 UNK        -0.2113 
     34 N          27.7036   20.1097   -0.4312 N.am      2 UNK        -0.4145 
     35 C          27.0231   20.4665    0.6665 C.2       1 UNK         0.5006 
     36 O          25.9241   21.0243    0.6300 O.2       1 UNK        -0.5103 
     37 C          29.1028   29.9513    2.2779 C.2       5 UNK         0.5055 
     38 O          30.2682   30.3281    2.4118 O.2       5 UNK        -0.5220 
     39 N          28.0992   30.7367    1.8522 N.am      6 UNK        -0.4450 
     40 CA         28.1734   32.1794    1.5826 C.3       6 UNK         0.0367 
     41 CB         29.0376   32.4658    0.3359 C.3       6 UNK        -0.1929 
     42 C          28.5790   32.9977    2.8284 C.2       6 UNK         0.5070 
     43 O          29.3226   33.9752    2.7213 O.2       6 UNK        -0.5237 
     44 N          28.0629   32.5720    3.9924 N.am      7 UNK        -0.4739 
     45 CA         28.2612   33.1496    5.3250 C.3       7 UNK         0.0276 
     46 CB         27.4813   34.4795    5.4484 C.3       7 UNK        -0.1927 
     47 C          29.7544   33.2484    5.6945 C.2       7 UNK         0.5013 
     48 O          30.4405   32.2251    5.7068 O.2       7 UNK        -0.5193 
     49 N          30.2355   34.4687    5.9691 N.am      8 UNK        -0.4253 
     50 CA         31.6085   34.7837    6.3753 C.3       8 UNK         0.0242 
     51 CB         31.6936   36.2797    6.7220 C.3       8 UNK        -0.2000 
     52 C          32.6979   34.4055    5.3535 C.2       8 UNK         0.4948 
     53 O          33.8653   34.3297    5.7392 O.2       8 UNK        -0.5275 
     54 N          32.3210   34.1713    4.0869 N.am      9 UNK        -0.4246 
     55 CA         33.2277   33.6942    3.0416 C.3       9 UNK         0.0261 
     56 CB         32.5558   33.8396    1.6691 C.3       9 UNK        -0.1959 
     57 C          33.6942   32.2431    3.2559 C.2       9 UNK         0.5033 
     58 O          34.7990   31.9174    2.8207 O.2       9 UNK        -0.5390 
     59 N          32.8602   31.4072    3.8996 N.am      10 UNK        -0.4215 
     60 CA         33.0919   29.9930    4.2314 C.3       10 UNK         0.0240 
     61 CB         34.0192   29.8901    5.4591 C.3       10 UNK        -0.1982 
     62 C          33.5904   29.1580    3.0322 C.2       10 UNK         0.4970 
     63 O          34.6586   28.5475    3.1039 O.2       10 UNK        -0.4916 
     64 N          32.8183   29.1961    1.9405 N.am      11 UNK        -0.4279 
     65 CA         33.1194   28.6208    0.6156 C.3       11 UNK         0.1003 
     66 C          34.2467   29.3462   -0.1814 C.2       11 UNK         0.5709 
     67 N          34.8529   30.4206    0.3091 N.am      11 UNK        -0.7358 
     68 O          34.5585   28.9470   -1.3012 O.2       11 UNK        -0.4999 
     69 C69        33.3252   27.0754    0.6211 C.3       12 UNK        -0.0954 
     70 S70        31.8772   26.1752    1.2567 S.3       12 UNK        -0.2268 
     71 C71        32.5104   25.4962    2.8174 C.3       12 UNK         0.0203 
     72 H72        29.4033   15.9525    2.3375 H         1 UNK         0.0888 
     73 H73        27.6613   16.1071    2.5735 H         1 UNK         0.0888 
     74 H74        28.3069   15.7763    0.9645 H         1 UNK         0.0888 
     75 H75        26.9962   18.2363    2.7708 H         1 UNK         0.3017 
     76 H76        28.7038   20.4435    1.9798 H         1 UNK         0.0873 
     77 H77        27.3245   20.2712    4.1699 H         1 UNK         0.0745 
     78 H78        25.9205   20.6631    3.2245 H         1 UNK         0.0745 
     79 H79        28.4848   22.2042    5.5318 H         1 UNK         0.0705 
     80 H80        29.5280   21.6689    4.2334 H         1 UNK         0.0705 
     81 H81        31.0205   23.2220    3.0797 H         1 UNK         0.1334 
     82 H82        31.4210   27.2018    4.6143 H         1 UNK         0.1417 
     83 H83        28.2509   24.6726    6.0150 H         1 UNK         0.1562 
     84 H84        29.9282   27.3313    7.1346 H         1 UNK         0.0748 
     85 H85        28.2791   26.9477    6.7010 H         1 UNK         0.0748 
     86 H86        27.1426   29.0025    4.0307 H         1 UNK         0.0940 
     87 H87        27.6622   27.3488    4.1216 H         1 UNK         0.0940 
     88 H88        29.6635   27.9223    2.6444 H         1 UNK         0.0703 
     89 H89        27.0170   27.5224    1.8215 H         1 UNK         0.3081 
     90 H90        26.4788   26.6037   -0.0778 H         1 UNK         0.0719 
     91 H91        27.4400   28.5432   -2.2551 H         1 UNK         0.0809 
     92 H92        25.9459   27.6067   -2.2960 H         1 UNK         0.0809 
     93 H93        26.1656   28.8619   -1.0876 H         1 UNK         0.0809 
     94 H94        28.3204   26.2423   -2.3334 H         1 UNK         0.2990 
     95 H95        28.9013   24.1149   -2.8813 H         1 UNK         0.0690 
     96 H96        31.1668   23.3652   -2.1487 H         1 UNK         0.0788 
     97 H97        30.7629   23.7242   -0.4689 H         1 UNK         0.0788 
     98 H98        30.8788   25.0233   -1.6451 H         1 UNK         0.0788 
     99 H99        29.2021   21.9111   -0.9793 H         1 UNK         0.2993 
    100 H100       26.2160   20.2596   -1.8884 H         1 UNK         0.0949 
    101 H101       29.0798   19.5378   -2.7228 H         1 UNK         0.0767 
    102 H102       27.7390   18.4068   -2.5411 H         1 UNK         0.0767 
    103 H103       27.6923   19.6308   -3.7997 H         1 UNK         0.0767 
    104 H104       28.5563   19.5729   -0.3006 H         1 UNK         0.3013 
    105 H105       27.1837   30.3208    1.7538 H         1 UNK         0.3121 
    106 H106       27.1575   32.5000    1.3470 H         1 UNK         0.0774 
    107 H107       29.0881   33.5346    0.1247 H         1 UNK         0.0815 
    108 H108       30.0582   32.1052    0.4524 H         1 UNK         0.0815 
    109 H109       28.6197   31.9829   -0.5472 H         1 UNK         0.0815 
    110 H110       27.5050   31.7309    3.9683 H         1 UNK         0.2987 
    111 H111       27.8272   32.4446    6.0361 H         1 UNK         0.0949 
    112 H112       27.5479   34.8882    6.4578 H         1 UNK         0.0806 
    113 H113       27.8426   35.2377    4.7525 H         1 UNK         0.0806 
    114 H114       26.4217   34.3279    5.2416 H         1 UNK         0.0806 
    115 H115       29.5990   35.2494    5.9000 H         1 UNK         0.3010 
    116 H116       31.8158   34.2106    7.2814 H         1 UNK         0.0829 
    117 H117       31.0010   36.5438    7.5214 H         1 UNK         0.0813 
    118 H118       32.6947   36.5459    7.0647 H         1 UNK         0.0813 
    119 H119       31.4681   36.9069    5.8585 H         1 UNK         0.0813 
    120 H120       31.3405   34.2510    3.8431 H         1 UNK         0.3038 
    121 H121       34.1158   34.3299    3.0514 H         1 UNK         0.0769 
    122 H122       33.2341   33.5434    0.8676 H         1 UNK         0.0811 
    123 H123       32.2530   34.8691    1.4777 H         1 UNK         0.0811 
    124 H124       31.6711   33.2095    1.5961 H         1 UNK         0.0811 
    125 H125       31.9653   31.7735    4.2086 H         1 UNK         0.3204 
    126 H126       32.1208   29.5834    4.5138 H         1 UNK         0.0748 
    127 H127       33.6086   30.4345    6.3097 H         1 UNK         0.0771 
    128 H128       34.1460   28.8519    5.7687 H         1 UNK         0.0771 
    129 H129       35.0104   30.2943    5.2496 H         1 UNK         0.0771 
    130 H130       31.9434   29.7149    2.0011 H         1 UNK         0.2980 
    131 H131       32.2186   28.8156    0.0323 H         1 UNK         0.0545 
    132 H132       34.6606   30.7649    1.2439 H         1 UNK         0.3459 
    133 H133       35.5657   30.8678   -0.2443 H         1 UNK         0.3459 
    134 H134       34.2189   26.7983    1.1814 H         1 UNK         0.0616 
    135 H135       33.4887   26.7107   -0.3943 H         1 UNK         0.0616 
    136 H136       33.2116   26.1924    3.2780 H         1 UNK         0.0634 
    137 H137       33.0654   24.5785    2.6177 H         1 UNK         0.0634 
@<TRIPOS>BOND
     1    1    2 1    
     2    1   72 1    
     3    1   73 1    
     4    1   74 1    
     5    2    3 2    
     6    2    4 am   BACKBONE|DICT|INTERRES
     7    4    5 1    
     8    4   75 1    
     9    5    6 1    
    10    5   35 1    
    11    5   76 1    
    12    6    7 1    
    13    6   77 1    
    14    6   78 1    
    15    7    8 1    
    16    8    9 1    
    17    8   79 1    
    18    8   80 1    
    19    9   10 ar   
    20    9   14 ar   
    21   10   11 ar   
    22   10   81 1    
    23   11   12 ar   
    24   11   71 1    
    25   12   13 ar   
    26   12   82 1    
    27   13   14 ar   
    28   13   15 1    
    29   14   83 1    
    30   15   16 1    
    31   15   84 1    
    32   15   85 1    
    33   16   17 1    
    34   17   18 1    
    35   17   86 1    
    36   17   87 1    
    37   18   19 1    
    38   18   37 1    
    39   18   88 1    
    40   19   20 am   BACKBONE|DICT|INTERRES
    41   19   89 1    
    42   20   21 2    
    43   20   22 1    
    44   22   23 1    
    45   22   24 1    
    46   22   90 1    
    47   23   91 1    
    48   23   92 1    
    49   23   93 1    
    50   24   25 am   BACKBONE|DICT|INTERRES
    51   24   94 1    
    52   25   26 2    
    53   25   27 1    
    54   27   28 1    
    55   27   29 1    
    56   27   95 1    
    57   28   96 1    
    58   28   97 1    
    59   28   98 1    
    60   29   30 am   BACKBONE|DICT|INTERRES
    61   29   99 1    
    62   30   31 2    
    63   30   32 1    
    64   32   33 1    
    65   32   34 1    
    66   32  100 1    
    67   33  101 1    
    68   33  102 1    
    69   33  103 1    
    70   34   35 am   BACKBONE|DICT|INTERRES
    71   34  104 1    
    72   35   36 2    
    73   37   38 2    
    74   37   39 am   BACKBONE|DICT|INTERRES
    75   39   40 1    
    76   39  105 1    
    77   40   41 1    
    78   40   42 1    
    79   40  106 1    
    80   41  107 1    
    81   41  108 1    
    82   41  109 1    
    83   42   43 2    
    84   42   44 am   BACKBONE|DICT|INTERRES
    85   44   45 1    
    86   44  110 1    
    87   45   46 1    
    88   45   47 1    
    89   45  111 1    
    90   46  112 1    
    91   46  113 1    
    92   46  114 1    
    93   47   48 2    
    94   47   49 am   BACKBONE|DICT|INTERRES
    95   49   50 1    
    96   49  115 1    
    97   50   51 1    
    98   50   52 1    
    99   50  116 1    
   100   51  117 1    
   101   51  118 1    
   102   51  119 1    
   103   52   53 2    
   104   52   54 am   BACKBONE|DICT|INTERRES
   105   54   55 1    
   106   54  120 1    
   107   55   56 1    
   108   55   57 1    
   109   55  121 1    
   110   56  122 1    
   111   56  123 1    
   112   56  124 1    
   113   57   58 2    
   114   57   59 am   BACKBONE|DICT|INTERRES
   115   59   60 1    
   116   59  125 1    
   117   60   61 1    
   118   60   62 1    
   119   60  126 1    
   120   61  127 1    
   121   61  128 1    
   122   61  129 1    
   123   62   63 2    
   124   62   64 am   BACKBONE|DICT|INTERRES
   125   64   65 1    
   126   64  130 1    
   127   65   66 1    
   128   65   69 1    
   129   65  131 1    
   130   66   67 am   BACKBONE|DICT|INTERRES
   131   66   68 2    
   132   67  132 1    
   133   67  133 1    
   134   69   70 1    
   135   69  134 1    
   136   69  135 1    
   137   70   71 1    
   138   71  136 1    
   139   71  137 1    
@<TRIPOS>SUBSTRUCTURE
     1 UNK         1 GROUP             0       ****    0 ROOT    
