@<TRIPOS>MOLECULE
3R136
137   139    1
SMALL
USER_CHARGES


@<TRIPOS>ATOM
      1 CA         30.7265   21.1329    1.7876 C.3       0 UNK        -0.1979 
      2 C          30.6064   21.7202    0.3888 C.2       0 UNK         0.4864 
      3 O          31.4401   21.4246   -0.4688 O.2       0 UNK        -0.5359 
      4 N          29.5716   22.5360    0.1568 N.am      1 UNK        -0.4318 
      5 CA         29.2601   23.1779   -1.1204 C.3       1 UNK         0.0824 
      6 C6         29.6084   24.6897   -1.1325 C.3       12 UNK        -0.0944 
      7 S7         31.3924   25.0376   -1.0049 S.3       12 UNK        -0.2672 
      8 C8         31.4410   26.1966    0.3956 C.3       12 UNK         0.0333 
      9 C9         31.6966   25.4902    1.7174 C.ar      12 UNK        -0.0807 
     10 C10        32.9849   25.4796    2.2564 C.ar      12 UNK        -0.0894 
     11 C11        33.2252   24.9218    3.5134 C.ar      12 UNK        -0.0804 
     12 C12        32.1721   24.3320    4.2172 C.ar      12 UNK        -0.0824 
     13 C13        30.8833   24.3070    3.6754 C.ar      12 UNK        -0.0762 
     14 C14        30.6507   24.8888    2.4245 C.ar      12 UNK        -0.0782 
     15 C15        29.7534   23.6497    4.4528 C.3       12 UNK         0.0230 
     16 S16        28.9886   24.8146    5.6245 S.3       12 UNK        -0.2608 
     17 C17        27.5716   25.4565    4.6692 C.3       12 UNK        -0.0989 
     18 CA         27.8816   26.7601    3.8950 C.3       5 UNK         0.0716 
     19 N          26.8509   27.0292    2.8920 N.am      5 UNK        -0.4135 
     20 C          26.9453   27.9430    1.9198 C.2       4 UNK         0.5031 
     21 O          27.9394   28.6493    1.7260 O.2       4 UNK        -0.5229 
     22 CA         25.7256   28.0860    1.0055 C.3       4 UNK         0.0329 
     23 CB         25.1575   29.5157    1.0357 C.3       4 UNK        -0.2001 
     24 N          26.1090   27.7289   -0.3571 N.am      4 UNK        -0.4303 
     25 C          25.2694   27.2409   -1.2799 C.2       3 UNK         0.5044 
     26 O          24.0736   27.0372   -1.0662 O.2       3 UNK        -0.5152 
     27 CA         25.8447   26.9498   -2.6804 C.3       3 UNK         0.0319 
     28 CB         27.0699   27.8184   -3.0329 C.3       3 UNK        -0.2001 
     29 N          26.2034   25.5397   -2.8345 N.am      3 UNK        -0.4354 
     30 C          25.3527   24.5114   -2.9802 C.2       2 UNK         0.4964 
     31 O          24.1300   24.6339   -3.0550 O.2       2 UNK        -0.5047 
     32 CA         25.9669   23.1002   -3.0959 C.3       2 UNK         0.0288 
     33 CB         25.8773   22.5912   -4.5449 C.3       2 UNK        -0.2113 
     34 N          27.3660   23.0422   -2.6578 N.am      2 UNK        -0.4145 
     35 C          27.7546   23.0122   -1.3760 C.2       1 UNK         0.5006 
     36 O          26.9760   22.9321   -0.4213 O.2       1 UNK        -0.5103 
     37 C          28.0634   27.9712    4.8295 C.2       5 UNK         0.5055 
     38 O          27.0688   28.5445    5.2803 O.2       5 UNK        -0.5220 
     39 N          29.3307   28.3350    5.0753 N.am      6 UNK        -0.4450 
     40 CA         29.7897   29.4856    5.8655 C.3       6 UNK         0.0367 
     41 CB         29.3635   29.3487    7.3430 C.3       6 UNK        -0.1929 
     42 C          29.4108   30.8583    5.2656 C.2       6 UNK         0.5070 
     43 O          29.4856   31.8640    5.9739 O.2       6 UNK        -0.5237 
     44 N          29.0268   30.8877    3.9817 N.am      7 UNK        -0.4739 
     45 CA         28.6709   32.0972    3.2394 C.3       7 UNK         0.0276 
     46 CB         27.1471   32.1715    3.0621 C.3       7 UNK        -0.1927 
     47 C          29.3974   32.1479    1.8905 C.2       7 UNK         0.5013 
     48 O          29.9690   33.1878    1.5614 O.2       7 UNK        -0.5193 
     49 N          29.4010   31.0314    1.1440 N.am      8 UNK        -0.4253 
     50 CA         30.1396   30.8956   -0.1185 C.3       8 UNK         0.0242 
     51 CB         29.5842   29.7006   -0.9088 C.3       8 UNK        -0.2000 
     52 C          31.6634   30.7683    0.0786 C.2       8 UNK         0.4948 
     53 O          32.4167   31.0349   -0.8586 O.2       8 UNK        -0.5275 
     54 N          32.0879   30.3885    1.2881 N.am      9 UNK        -0.4246 
     55 CA         33.4654   30.3828    1.7627 C.3       9 UNK         0.0261 
     56 CB         34.1052   29.0108    1.5016 C.3       9 UNK        -0.1959 
     57 C          33.4182   30.6819    3.2632 C.2       9 UNK         0.5033 
     58 O          32.4257   30.3432    3.9147 O.2       9 UNK        -0.5390 
     59 N          34.4907   31.2745    3.8007 N.am      10 UNK        -0.4215 
     60 CA         34.6214   31.6836    5.2055 C.3       10 UNK         0.0240 
     61 CB         35.6823   32.7971    5.3011 C.3       10 UNK        -0.1982 
     62 C          34.9068   30.5076    6.1667 C.2       10 UNK         0.4970 
     63 O          35.7968   30.6059    7.0135 O.2       10 UNK        -0.4916 
     64 N          34.1477   29.4180    6.0187 N.am      11 UNK        -0.4279 
     65 CA         34.2293   28.1971    6.8362 C.3       11 UNK         0.1003 
     66 C          33.4096   28.2636    8.1584 C.2       11 UNK         0.5709 
     67 N          32.7016   29.3474    8.4545 N.am      11 UNK        -0.7358 
     68 O          33.4310   27.3186    8.9434 O.2       11 UNK        -0.4999 
     69 C69        33.8742   26.9390    6.0015 C.3       12 UNK        -0.0954 
     70 S70        35.0466   26.6780    4.6284 S.3       12 UNK        -0.2268 
     71 C71        34.6203   24.9842    4.1149 C.3       12 UNK         0.0203 
     72 H72        31.5589   21.5974    2.3160 H         1 UNK         0.0888 
     73 H73        29.8206   21.2873    2.3726 H         1 UNK         0.0888 
     74 H74        30.9119   20.0606    1.7326 H         1 UNK         0.0888 
     75 H75        28.8581   22.6633    0.8620 H         1 UNK         0.3017 
     76 H76        29.7946   22.6769   -1.9307 H         1 UNK         0.0873 
     77 H77        29.2793   25.1509   -2.0653 H         1 UNK         0.0745 
     78 H78        29.0676   25.2078   -0.3386 H         1 UNK         0.0745 
     79 H79        32.2272   26.9283    0.2047 H         1 UNK         0.0705 
     80 H80        30.5163   26.7700    0.4561 H         1 UNK         0.0705 
     81 H81        33.8013   25.9348    1.7130 H         1 UNK         0.1334 
     82 H82        32.3521   23.9003    5.1924 H         1 UNK         0.1417 
     83 H83        29.6549   24.8836    2.0051 H         1 UNK         0.1562 
     84 H84        30.1456   22.8010    5.0153 H         1 UNK         0.0748 
     85 H85        29.0064   23.2357    3.7749 H         1 UNK         0.0748 
     86 H86        26.7362   25.6088    5.3559 H         1 UNK         0.0940 
     87 H87        27.2385   24.6794    3.9797 H         1 UNK         0.0940 
     88 H88        28.8123   26.6230    3.3453 H         1 UNK         0.0703 
     89 H89        25.9833   26.5251    3.0002 H         1 UNK         0.3081 
     90 H90        24.9499   27.4001    1.3538 H         1 UNK         0.0719 
     91 H91        25.8684   30.2391    0.6346 H         1 UNK         0.0809 
     92 H92        24.2426   29.5902    0.4479 H         1 UNK         0.0809 
     93 H93        24.9104   29.8171    2.0544 H         1 UNK         0.0809 
     94 H94        27.0843   27.8624   -0.5843 H         1 UNK         0.2990 
     95 H95        25.0577   27.1837   -3.4007 H         1 UNK         0.0690 
     96 H96        27.3454   27.6942   -4.0805 H         1 UNK         0.0788 
     97 H97        27.9458   27.5677   -2.4337 H         1 UNK         0.0788 
     98 H98        26.8559   28.8783   -2.8865 H         1 UNK         0.0788 
     99 H99        27.1873   25.3269   -2.8058 H         1 UNK         0.2993 
    100 H100       25.3728   22.4362   -2.4636 H         1 UNK         0.0949 
    101 H101       26.4487   23.2182   -5.2307 H         1 UNK         0.0767 
    102 H102       26.2510   21.5705   -4.6307 H         1 UNK         0.0767 
    103 H103       24.8436   22.5852   -4.8939 H         1 UNK         0.0767 
    104 H104       28.0673   23.0908   -3.3840 H         1 UNK         0.3013 
    105 H105       30.0682   27.7852    4.6556 H         1 UNK         0.3121 
    106 H106       30.8788   29.4442    5.8439 H         1 UNK         0.0774 
    107 H107       29.8279   30.1203    7.9577 H         1 UNK         0.0815 
    108 H108       28.2847   29.4456    7.4665 H         1 UNK         0.0815 
    109 H109       29.6654   28.3855    7.7544 H         1 UNK         0.0815 
    110 H110       28.9863   30.0135    3.4766 H         1 UNK         0.2987 
    111 H111       28.9877   32.9832    3.7945 H         1 UNK         0.0949 
    112 H112       26.8607   33.0344    2.4594 H         1 UNK         0.0806 
    113 H113       26.7605   31.2810    2.5709 H         1 UNK         0.0806 
    114 H114       26.6438   32.2641    4.0246 H         1 UNK         0.0806 
    115 H115       28.8679   30.2164    1.4412 H         1 UNK         0.3010 
    116 H116       29.9678   31.7965   -0.7118 H         1 UNK         0.0829 
    117 H117       28.5233   29.8316   -1.1206 H         1 UNK         0.0813 
    118 H118       30.0961   29.5903   -1.8658 H         1 UNK         0.0813 
    119 H119       29.7056   28.7662   -0.3632 H         1 UNK         0.0813 
    120 H120       31.4086   30.2377    2.0234 H         1 UNK         0.3038 
    121 H121       34.0342   31.1665    1.2575 H         1 UNK         0.0769 
    122 H122       33.5807   28.2271    2.0472 H         1 UNK         0.0811 
    123 H123       35.1460   28.9926    1.8269 H         1 UNK         0.0811 
    124 H124       34.0891   28.7566    0.4418 H         1 UNK         0.0811 
    125 H125       35.2833   31.4692    3.2052 H         1 UNK         0.3204 
    126 H126       33.6687   32.1144    5.5218 H         1 UNK         0.0748 
    127 H127       35.7560   33.1841    6.3185 H         1 UNK         0.0771 
    128 H128       36.6717   32.4372    5.0158 H         1 UNK         0.0771 
    129 H129       35.4323   33.6404    4.6570 H         1 UNK         0.0771 
    130 H130       33.4288   29.4413    5.3025 H         1 UNK         0.2980 
    131 H131       35.2656   28.0802    7.1587 H         1 UNK         0.0545 
    132 H132       32.1900   29.3766    9.3219 H         1 UNK         0.3459 
    133 H133       32.6957   30.1406    7.8356 H         1 UNK         0.3459 
    134 H134       32.8640   27.0193    5.5959 H         1 UNK         0.0616 
    135 H135       33.8889   26.0435    6.6255 H         1 UNK         0.0616 
    136 H136       34.7113   24.3109    4.9687 H         1 UNK         0.0634 
    137 H137       35.3477   24.6453    3.3760 H         1 UNK         0.0634 
@<TRIPOS>BOND
     1    1    2 1    
     2    1   72 1    
     3    1   73 1    
     4    1   74 1    
     5    2    3 2    
     6    2    4 am   BACKBONE|DICT|INTERRES
     7    4    5 1    
     8    4   75 1    
     9    5    6 1    
    10    5   35 1    
    11    5   76 1    
    12    6    7 1    
    13    6   77 1    
    14    6   78 1    
    15    7    8 1    
    16    8    9 1    
    17    8   79 1    
    18    8   80 1    
    19    9   10 ar   
    20    9   14 ar   
    21   10   11 ar   
    22   10   81 1    
    23   11   12 ar   
    24   11   71 1    
    25   12   13 ar   
    26   12   82 1    
    27   13   14 ar   
    28   13   15 1    
    29   14   83 1    
    30   15   16 1    
    31   15   84 1    
    32   15   85 1    
    33   16   17 1    
    34   17   18 1    
    35   17   86 1    
    36   17   87 1    
    37   18   19 1    
    38   18   37 1    
    39   18   88 1    
    40   19   20 am   BACKBONE|DICT|INTERRES
    41   19   89 1    
    42   20   21 2    
    43   20   22 1    
    44   22   23 1    
    45   22   24 1    
    46   22   90 1    
    47   23   91 1    
    48   23   92 1    
    49   23   93 1    
    50   24   25 am   BACKBONE|DICT|INTERRES
    51   24   94 1    
    52   25   26 2    
    53   25   27 1    
    54   27   28 1    
    55   27   29 1    
    56   27   95 1    
    57   28   96 1    
    58   28   97 1    
    59   28   98 1    
    60   29   30 am   BACKBONE|DICT|INTERRES
    61   29   99 1    
    62   30   31 2    
    63   30   32 1    
    64   32   33 1    
    65   32   34 1    
    66   32  100 1    
    67   33  101 1    
    68   33  102 1    
    69   33  103 1    
    70   34   35 am   BACKBONE|DICT|INTERRES
    71   34  104 1    
    72   35   36 2    
    73   37   38 2    
    74   37   39 am   BACKBONE|DICT|INTERRES
    75   39   40 1    
    76   39  105 1    
    77   40   41 1    
    78   40   42 1    
    79   40  106 1    
    80   41  107 1    
    81   41  108 1    
    82   41  109 1    
    83   42   43 2    
    84   42   44 am   BACKBONE|DICT|INTERRES
    85   44   45 1    
    86   44  110 1    
    87   45   46 1    
    88   45   47 1    
    89   45  111 1    
    90   46  112 1    
    91   46  113 1    
    92   46  114 1    
    93   47   48 2    
    94   47   49 am   BACKBONE|DICT|INTERRES
    95   49   50 1    
    96   49  115 1    
    97   50   51 1    
    98   50   52 1    
    99   50  116 1    
   100   51  117 1    
   101   51  118 1    
   102   51  119 1    
   103   52   53 2    
   104   52   54 am   BACKBONE|DICT|INTERRES
   105   54   55 1    
   106   54  120 1    
   107   55   56 1    
   108   55   57 1    
   109   55  121 1    
   110   56  122 1    
   111   56  123 1    
   112   56  124 1    
   113   57   58 2    
   114   57   59 am   BACKBONE|DICT|INTERRES
   115   59   60 1    
   116   59  125 1    
   117   60   61 1    
   118   60   62 1    
   119   60  126 1    
   120   61  127 1    
   121   61  128 1    
   122   61  129 1    
   123   62   63 2    
   124   62   64 am   BACKBONE|DICT|INTERRES
   125   64   65 1    
   126   64  130 1    
   127   65   66 1    
   128   65   69 1    
   129   65  131 1    
   130   66   67 am   BACKBONE|DICT|INTERRES
   131   66   68 2    
   132   67  132 1    
   133   67  133 1    
   134   69   70 1    
   135   69  134 1    
   136   69  135 1    
   137   70   71 1    
   138   71  136 1    
   139   71  137 1    
@<TRIPOS>SUBSTRUCTURE
     1 UNK         1 GROUP             0       ****    0 ROOT    
