@<TRIPOS>MOLECULE
3R136
137   139    1
SMALL
USER_CHARGES


@<TRIPOS>ATOM
      1 CA         27.9890   19.7204    2.5030 C.3       0 UNK        -0.1979 
      2 C          28.1969   20.8575    1.5148 C.2       0 UNK         0.4864 
      3 O          27.2982   21.6808    1.3375 O.2       0 UNK        -0.5359 
      4 N          29.3695   20.8988    0.8608 N.am      1 UNK        -0.4318 
      5 CA         29.8190   21.9464   -0.0751 C.3       1 UNK         0.0824 
      6 C6         30.1336   23.2904    0.6425 C.3       12 UNK        -0.0944 
      7 S7         31.5446   23.1510    1.7920 S.3       12 UNK        -0.2672 
      8 C8         30.7334   22.9659    3.4129 C.3       12 UNK         0.0333 
      9 C9         29.9824   24.2182    3.8425 C.ar      12 UNK        -0.0807 
     10 C10        30.6876   25.3737    4.1903 C.ar      12 UNK        -0.0894 
     11 C11        30.0088   26.5223    4.6070 C.ar      12 UNK        -0.0804 
     12 C12        28.6135   26.5022    4.6991 C.ar      12 UNK        -0.0824 
     13 C13        27.8972   25.3493    4.3606 C.ar      12 UNK        -0.0762 
     14 C14        28.5863   24.2136    3.9239 C.ar      12 UNK        -0.0782 
     15 C15        26.3815   25.3132    4.4945 C.3       12 UNK         0.0230 
     16 S16        25.5466   25.6384    2.9109 S.3       12 UNK        -0.2608 
     17 C17        25.8081   27.4345    2.7115 C.3       12 UNK        -0.0989 
     18 CA         26.9093   27.7584    1.6724 C.3       5 UNK         0.0716 
     19 N          26.5790   27.2041    0.3610 N.am      5 UNK        -0.4135 
     20 C          27.4214   27.0575   -0.6660 C.2       4 UNK         0.5031 
     21 O          28.6042   27.4037   -0.6414 O.2       4 UNK        -0.5229 
     22 CA         26.8362   26.3603   -1.9089 C.3       4 UNK         0.0329 
     23 CB         27.8497   26.2410   -3.0622 C.3       4 UNK        -0.2001 
     24 N          26.3387   25.0256   -1.5598 N.am      4 UNK        -0.4303 
     25 C          25.1309   24.7695   -1.0318 C.2       3 UNK         0.5044 
     26 O          24.2984   25.6545   -0.8231 O.2       3 UNK        -0.5152 
     27 CA         24.8015   23.3205   -0.6116 C.3       3 UNK         0.0319 
     28 CB         23.3347   22.9395   -0.9043 C.3       3 UNK        -0.2001 
     29 N          25.7311   22.3121   -1.1323 N.am      3 UNK        -0.4354 
     30 C          25.9360   21.9650   -2.4146 C.2       2 UNK         0.4964 
     31 O          25.2651   22.3943   -3.3543 O.2       2 UNK        -0.5047 
     32 CA         27.1115   21.0000   -2.6975 C.3       2 UNK         0.0288 
     33 CB         27.7075   21.1967   -4.1083 C.3       2 UNK        -0.2113 
     34 N          28.1765   21.0478   -1.6830 N.am      2 UNK        -0.4145 
     35 C          28.8649   22.1306   -1.2808 C.2       1 UNK         0.5006 
     36 O          28.7271   23.2427   -1.7924 O.2       1 UNK        -0.5103 
     37 C          27.1484   29.2784    1.5960 C.2       5 UNK         0.5055 
     38 O          26.5423   29.9636    0.7672 O.2       5 UNK        -0.5220 
     39 N          27.9931   29.7777    2.5005 N.am      6 UNK        -0.4450 
     40 CA         28.3262   31.1854    2.6913 C.3       6 UNK         0.0367 
     41 CB         29.3961   31.6134    1.6640 C.3       6 UNK        -0.1929 
     42 C          28.7919   31.3630    4.1455 C.2       6 UNK         0.5070 
     43 O          28.5752   30.4695    4.9693 O.2       6 UNK        -0.5237 
     44 N          29.4364   32.4975    4.4428 N.am      7 UNK        -0.4739 
     45 CA         30.1870   32.7025    5.6839 C.3       7 UNK         0.0276 
     46 CB         30.4858   34.2013    5.8483 C.3       7 UNK        -0.1927 
     47 C          31.4985   31.9020    5.6419 C.2       7 UNK         0.5013 
     48 O          32.0836   31.7662    4.5653 O.2       7 UNK        -0.5193 
     49 N          31.9720   31.4325    6.8044 N.am      8 UNK        -0.4253 
     50 CA         33.1708   30.5912    6.9466 C.3       8 UNK         0.0242 
     51 CB         33.3926   30.2598    8.4306 C.3       8 UNK        -0.2000 
     52 C          34.4539   31.1800    6.3284 C.2       8 UNK         0.4948 
     53 O          35.2700   30.4263    5.7971 O.2       8 UNK        -0.5275 
     54 N          34.5815   32.5140    6.3621 N.am      9 UNK        -0.4246 
     55 CA         35.6609   33.2694    5.7217 C.3       9 UNK         0.0261 
     56 CB         35.6102   34.7280    6.2051 C.3       9 UNK        -0.1959 
     57 C          35.6334   33.2133    4.1814 C.2       9 UNK         0.5033 
     58 O          36.6904   33.3551    3.5647 O.2       9 UNK        -0.5390 
     59 N          34.4477   33.0134    3.5882 N.am      10 UNK        -0.4215 
     60 CA         34.2641   32.8192    2.1497 C.3       10 UNK         0.0240 
     61 CB         32.9047   33.3917    1.7150 C.3       10 UNK        -0.1982 
     62 C          34.3828   31.3347    1.7722 C.2       10 UNK         0.4970 
     63 O          34.9450   31.0340    0.7184 O.2       10 UNK        -0.4916 
     64 N          33.8706   30.4391    2.6301 N.am      11 UNK        -0.4279 
     65 CA         33.9978   28.9793    2.4835 C.3       11 UNK         0.1003 
     66 C          35.4692   28.4830    2.5428 C.2       11 UNK         0.5709 
     67 N          36.2814   28.9840    3.4663 N.am      11 UNK        -0.7358 
     68 O          35.8741   27.6404    1.7455 O.2       11 UNK        -0.4999 
     69 C69        33.1397   28.1964    3.5099 C.3       12 UNK        -0.0954 
     70 S70        31.3748   28.6449    3.4829 S.3       12 UNK        -0.2268 
     71 C71        30.7835   27.7790    4.9709 C.3       12 UNK         0.0203 
     72 H72        28.8577   19.0648    2.5606 H         1 UNK         0.0888 
     73 H73        27.1286   19.1203    2.2083 H         1 UNK         0.0888 
     74 H74        27.8001   20.1213    3.4984 H         1 UNK         0.0888 
     75 H75        30.0535   20.1776    1.0456 H         1 UNK         0.3017 
     76 H76        30.7500   21.5825   -0.5128 H         1 UNK         0.0873 
     77 H77        29.2532   23.6738    1.1601 H         1 UNK         0.0745 
     78 H78        30.4107   24.0609   -0.0794 H         1 UNK         0.0745 
     79 H79        30.0717   22.1003    3.3944 H         1 UNK         0.0705 
     80 H80        31.4978   22.7417    4.1581 H         1 UNK         0.0705 
     81 H81        31.7669   25.3793    4.1285 H         1 UNK         0.1334 
     82 H82        28.0866   27.3827    5.0410 H         1 UNK         0.1417 
     83 H83        28.0324   23.3233    3.6565 H         1 UNK         0.1562 
     84 H84        26.0409   26.0263    5.2469 H         1 UNK         0.0748 
     85 H85        26.0730   24.3301    4.8535 H         1 UNK         0.0748 
     86 H86        26.0455   27.8744    3.6819 H         1 UNK         0.0940 
     87 H87        24.8580   27.8805    2.4099 H         1 UNK         0.0940 
     88 H88        27.8414   27.2888    1.9952 H         1 UNK         0.0703 
     89 H89        25.6272   26.8789    0.2380 H         1 UNK         0.3081 
     90 H90        26.0054   26.9725   -2.2663 H         1 UNK         0.0719 
     91 H91        28.7409   25.6881   -2.7642 H         1 UNK         0.0809 
     92 H92        27.4139   25.7344   -3.9234 H         1 UNK         0.0809 
     93 H93        28.1766   27.2268   -3.3952 H         1 UNK         0.0809 
     94 H94        27.0071   24.2666   -1.6546 H         1 UNK         0.2990 
     95 H95        24.9319   23.2981    0.4716 H         1 UNK         0.0690 
     96 H96        23.1188   21.9191   -0.5878 H         1 UNK         0.0788 
     97 H97        23.0966   23.0212   -1.9651 H         1 UNK         0.0788 
     98 H98        22.6469   23.5948   -0.3685 H         1 UNK         0.0788 
     99 H99        26.3513   21.9225   -0.4270 H         1 UNK         0.2993 
    100 H100       26.6885   19.9952   -2.6530 H         1 UNK         0.0949 
    101 H101       26.9567   21.0238   -4.8805 H         1 UNK         0.0767 
    102 H102       28.0901   22.2085   -4.2475 H         1 UNK         0.0767 
    103 H103       28.5253   20.5004   -4.2941 H         1 UNK         0.0767 
    104 H104       28.3483   20.1823   -1.1900 H         1 UNK         0.3013 
    105 H105       28.4055   29.1709    3.1990 H         1 UNK         0.3121 
    106 H106       27.4265   31.7890    2.5559 H         1 UNK         0.0774 
    107 H107       29.0832   31.3873    0.6446 H         1 UNK         0.0815 
    108 H108       30.3449   31.1039    1.8394 H         1 UNK         0.0815 
    109 H109       29.5833   32.6864    1.7040 H         1 UNK         0.0815 
    110 H110       29.5993   33.1668    3.7054 H         1 UNK         0.2987 
    111 H111       29.5829   32.3617    6.5279 H         1 UNK         0.0949 
    112 H112       31.1027   34.5832    5.0334 H         1 UNK         0.0806 
    113 H113       29.5672   34.7876    5.8762 H         1 UNK         0.0806 
    114 H114       31.0196   34.3951    6.7797 H         1 UNK         0.0806 
    115 H115       31.4445   31.6079    7.6479 H         1 UNK         0.3010 
    116 H116       32.9643   29.6577    6.4208 H         1 UNK         0.0829 
    117 H117       32.5385   29.7292    8.8518 H         1 UNK         0.0813 
    118 H118       34.2652   29.6177    8.5608 H         1 UNK         0.0813 
    119 H119       33.5581   31.1589    9.0256 H         1 UNK         0.0813 
    120 H120       33.8607   33.0493    6.8237 H         1 UNK         0.3038 
    121 H121       36.6090   32.8344    6.0456 H         1 UNK         0.0769 
    122 H122       34.6735   35.2136    5.9282 H         1 UNK         0.0811 
    123 H123       36.4212   35.3120    5.7675 H         1 UNK         0.0811 
    124 H124       35.7163   34.7921    7.2882 H         1 UNK         0.0811 
    125 H125       33.6319   32.8296    4.1649 H         1 UNK         0.3204 
    126 H126       35.0407   33.3638    1.6082 H         1 UNK         0.0748 
    127 H127       32.8353   34.4567    1.9369 H         1 UNK         0.0771 
    128 H128       32.7578   33.2732    0.6407 H         1 UNK         0.0771 
    129 H129       32.0745   32.8925    2.2131 H         1 UNK         0.0771 
    130 H130       33.3528   30.7686    3.4381 H         1 UNK         0.2980 
    131 H131       33.6197   28.7313    1.4897 H         1 UNK         0.0545 
    132 H132       37.2369   28.6688    3.5065 H         1 UNK         0.3459 
    133 H133       35.9281   29.6193    4.1766 H         1 UNK         0.3459 
    134 H134       33.2131   27.1240    3.3214 H         1 UNK         0.0616 
    135 H135       33.5248   28.3601    4.5173 H         1 UNK         0.0616 
    136 H136       31.6181   27.5200    5.6235 H         1 UNK         0.0634 
    137 H137       30.1581   28.4604    5.5477 H         1 UNK         0.0634 
@<TRIPOS>BOND
     1    1    2 1    
     2    1   72 1    
     3    1   73 1    
     4    1   74 1    
     5    2    3 2    
     6    2    4 am   BACKBONE|DICT|INTERRES
     7    4    5 1    
     8    4   75 1    
     9    5    6 1    
    10    5   35 1    
    11    5   76 1    
    12    6    7 1    
    13    6   77 1    
    14    6   78 1    
    15    7    8 1    
    16    8    9 1    
    17    8   79 1    
    18    8   80 1    
    19    9   10 ar   
    20    9   14 ar   
    21   10   11 ar   
    22   10   81 1    
    23   11   12 ar   
    24   11   71 1    
    25   12   13 ar   
    26   12   82 1    
    27   13   14 ar   
    28   13   15 1    
    29   14   83 1    
    30   15   16 1    
    31   15   84 1    
    32   15   85 1    
    33   16   17 1    
    34   17   18 1    
    35   17   86 1    
    36   17   87 1    
    37   18   19 1    
    38   18   37 1    
    39   18   88 1    
    40   19   20 am   BACKBONE|DICT|INTERRES
    41   19   89 1    
    42   20   21 2    
    43   20   22 1    
    44   22   23 1    
    45   22   24 1    
    46   22   90 1    
    47   23   91 1    
    48   23   92 1    
    49   23   93 1    
    50   24   25 am   BACKBONE|DICT|INTERRES
    51   24   94 1    
    52   25   26 2    
    53   25   27 1    
    54   27   28 1    
    55   27   29 1    
    56   27   95 1    
    57   28   96 1    
    58   28   97 1    
    59   28   98 1    
    60   29   30 am   BACKBONE|DICT|INTERRES
    61   29   99 1    
    62   30   31 2    
    63   30   32 1    
    64   32   33 1    
    65   32   34 1    
    66   32  100 1    
    67   33  101 1    
    68   33  102 1    
    69   33  103 1    
    70   34   35 am   BACKBONE|DICT|INTERRES
    71   34  104 1    
    72   35   36 2    
    73   37   38 2    
    74   37   39 am   BACKBONE|DICT|INTERRES
    75   39   40 1    
    76   39  105 1    
    77   40   41 1    
    78   40   42 1    
    79   40  106 1    
    80   41  107 1    
    81   41  108 1    
    82   41  109 1    
    83   42   43 2    
    84   42   44 am   BACKBONE|DICT|INTERRES
    85   44   45 1    
    86   44  110 1    
    87   45   46 1    
    88   45   47 1    
    89   45  111 1    
    90   46  112 1    
    91   46  113 1    
    92   46  114 1    
    93   47   48 2    
    94   47   49 am   BACKBONE|DICT|INTERRES
    95   49   50 1    
    96   49  115 1    
    97   50   51 1    
    98   50   52 1    
    99   50  116 1    
   100   51  117 1    
   101   51  118 1    
   102   51  119 1    
   103   52   53 2    
   104   52   54 am   BACKBONE|DICT|INTERRES
   105   54   55 1    
   106   54  120 1    
   107   55   56 1    
   108   55   57 1    
   109   55  121 1    
   110   56  122 1    
   111   56  123 1    
   112   56  124 1    
   113   57   58 2    
   114   57   59 am   BACKBONE|DICT|INTERRES
   115   59   60 1    
   116   59  125 1    
   117   60   61 1    
   118   60   62 1    
   119   60  126 1    
   120   61  127 1    
   121   61  128 1    
   122   61  129 1    
   123   62   63 2    
   124   62   64 am   BACKBONE|DICT|INTERRES
   125   64   65 1    
   126   64  130 1    
   127   65   66 1    
   128   65   69 1    
   129   65  131 1    
   130   66   67 am   BACKBONE|DICT|INTERRES
   131   66   68 2    
   132   67  132 1    
   133   67  133 1    
   134   69   70 1    
   135   69  134 1    
   136   69  135 1    
   137   70   71 1    
   138   71  136 1    
   139   71  137 1    
@<TRIPOS>SUBSTRUCTURE
     1 UNK         1 GROUP             0       ****    0 ROOT    
