@<TRIPOS>MOLECULE
3R136
137   139    1
SMALL
USER_CHARGES


@<TRIPOS>ATOM
      1 CA         26.1953   17.5436    1.9131 C.3       0 UNK        -0.1979 
      2 C          26.6883   18.4529    0.7975 C.2       0 UNK         0.4864 
      3 O          26.2133   18.3481   -0.3338 O.2       0 UNK        -0.5359 
      4 N          27.6302   19.3540    1.1075 N.am      1 UNK        -0.4318 
      5 CA         28.2317   20.3046    0.1619 C.3       1 UNK         0.0824 
      6 C6         29.6488   20.7359    0.6246 C.3       12 UNK        -0.0944 
      7 S7         29.6806   21.7020    2.1789 S.3       12 UNK        -0.2672 
      8 C8         30.0816   23.3467    1.5126 C.3       12 UNK         0.0333 
      9 C9         30.0184   24.4285    2.5784 C.ar      12 UNK        -0.0807 
     10 C10        31.1822   24.8456    3.2300 C.ar      12 UNK        -0.0894 
     11 C11        31.1388   25.8888    4.1596 C.ar      12 UNK        -0.0804 
     12 C12        29.9209   26.5153    4.4372 C.ar      12 UNK        -0.0824 
     13 C13        28.7502   26.1062    3.7908 C.ar      12 UNK        -0.0762 
     14 C14        28.8022   25.0505    2.8751 C.ar      12 UNK        -0.0782 
     15 C15        27.4370   26.8234    4.0651 C.3       12 UNK         0.0230 
     16 S16        27.3907   28.4594    3.2644 S.3       12 UNK        -0.2608 
     17 C17        27.1549   28.0316    1.5037 C.3       12 UNK        -0.0989 
     18 CA         28.4704   27.8483    0.6940 C.3       5 UNK         0.0716 
     19 N          28.2199   27.4080   -0.6756 N.am      5 UNK        -0.4135 
     20 C          27.8125   26.1817   -1.0128 C.2       4 UNK         0.5031 
     21 O          27.5611   25.3020   -0.1872 O.2       4 UNK        -0.5229 
     22 CA         27.6822   25.8776   -2.5126 C.3       4 UNK         0.0329 
     23 CB         29.0607   25.5831   -3.1270 C.3       4 UNK        -0.2001 
     24 N          26.8372   24.6967   -2.6657 N.am      4 UNK        -0.4303 
     25 C          25.7119   24.6172   -3.3872 C.2       3 UNK         0.5044 
     26 O          25.3365   25.4874   -4.1740 O.2       3 UNK        -0.5152 
     27 CA         24.8350   23.3635   -3.1760 C.3       3 UNK         0.0319 
     28 CB         25.1338   22.3080   -4.2524 C.3       3 UNK        -0.2001 
     29 N          25.0186   22.7640   -1.8502 N.am      3 UNK        -0.4354 
     30 C          24.6927   23.3598   -0.6952 C.2       2 UNK         0.4964 
     31 O          23.9840   24.3662   -0.6392 O.2       2 UNK        -0.5047 
     32 CA         25.2609   22.7814    0.6196 C.3       2 UNK         0.0288 
     33 CB         24.1217   22.4052    1.5840 C.3       2 UNK        -0.2113 
     34 N          26.1868   21.6411    0.5379 N.am      2 UNK        -0.4145 
     35 C          27.3307   21.5224   -0.1569 C.2       1 UNK         0.5006 
     36 O          27.7003   22.3231   -1.0163 O.2       1 UNK        -0.5103 
     37 C          29.3252   29.1219    0.6278 C.2       5 UNK         0.5055 
     38 O          29.1678   29.9128   -0.3067 O.2       5 UNK        -0.5220 
     39 N          30.2028   29.2947    1.6218 N.am      6 UNK        -0.4450 
     40 CA         31.0473   30.4733    1.8065 C.3       6 UNK         0.0367 
     41 CB         32.3703   30.3054    1.0368 C.3       6 UNK        -0.1929 
     42 C          31.2526   30.7548    3.3038 C.2       6 UNK         0.5070 
     43 O          32.3375   31.1916    3.7029 O.2       6 UNK        -0.5237 
     44 N          30.2092   30.5019    4.1095 N.am      7 UNK        -0.4739 
     45 CA         30.1745   30.7366    5.5552 C.3       7 UNK         0.0276 
     46 CB         28.8217   30.2756    6.1225 C.3       7 UNK        -0.1927 
     47 C          30.4335   32.2141    5.8942 C.2       7 UNK         0.5013 
     48 O          29.6471   33.0736    5.4924 O.2       7 UNK        -0.5193 
     49 N          31.5575   32.4679    6.5764 N.am      8 UNK        -0.4253 
     50 CA         32.1347   33.7694    6.9382 C.3       8 UNK         0.0242 
     51 CB         31.1593   34.6075    7.7917 C.3       8 UNK        -0.2000 
     52 C          32.7024   34.5724    5.7488 C.2       8 UNK         0.4948 
     53 O          33.2225   35.6670    5.9712 O.2       8 UNK        -0.5275 
     54 N          32.6306   34.0268    4.5269 N.am      9 UNK        -0.4246 
     55 CA         33.2133   34.6048    3.3158 C.3       9 UNK         0.0261 
     56 CB         32.2508   34.4153    2.1317 C.3       9 UNK        -0.1959 
     57 C          34.5820   33.9775    3.0168 C.2       9 UNK         0.5033 
     58 O          35.5150   34.7105    2.6845 O.2       9 UNK        -0.5390 
     59 N          34.6858   32.6479    3.1531 N.am      10 UNK        -0.4215 
     60 CA         35.9232   31.8881    2.9528 C.3       10 UNK         0.0240 
     61 CB         36.0234   31.4170    1.4904 C.3       10 UNK        -0.1982 
     62 C          36.0778   30.7027    3.9195 C.2       10 UNK         0.4970 
     63 O          37.1997   30.2125    4.0584 O.2       10 UNK        -0.4916 
     64 N          34.9959   30.2548    4.5691 N.am      11 UNK        -0.4279 
     65 CA         35.0030   29.1280    5.5123 C.3       11 UNK         0.1003 
     66 C          34.0284   29.3496    6.6997 C.2       11 UNK         0.5709 
     67 N          33.9112   28.3897    7.6070 N.am      11 UNK        -0.7358 
     68 O          33.3942   30.3944    6.8289 O.2       11 UNK        -0.4999 
     69 C69        34.8395   27.7614    4.7884 C.3       12 UNK        -0.0954 
     70 S70        33.2820   27.5878    3.8504 S.3       12 UNK        -0.2268 
     71 C71        32.4121   26.3452    4.8509 C.3       12 UNK         0.0203 
     72 H72        25.1235   17.6751    2.0593 H         1 UNK         0.0888 
     73 H73        26.3788   16.5009    1.6550 H         1 UNK         0.0888 
     74 H74        26.6949   17.7511    2.8593 H         1 UNK         0.0888 
     75 H75        27.9844   19.4053    2.0532 H         1 UNK         0.3017 
     76 H76        28.3592   19.7808   -0.7882 H         1 UNK         0.0873 
     77 H77        30.2678   19.8495    0.7719 H         1 UNK         0.0745 
     78 H78        30.1459   21.2984   -0.1683 H         1 UNK         0.0745 
     79 H79        29.3909   23.5927    0.7059 H         1 UNK         0.0705 
     80 H80        31.0752   23.3187    1.0624 H         1 UNK         0.0705 
     81 H81        32.1268   24.3709    3.0009 H         1 UNK         0.1334 
     82 H82        29.8879   27.3323    5.1445 H         1 UNK         0.1417 
     83 H83        27.9039   24.7365    2.3605 H         1 UNK         0.1562 
     84 H84        27.3182   26.9554    5.1415 H         1 UNK         0.0748 
     85 H85        26.5852   26.2260    3.7360 H         1 UNK         0.0748 
     86 H86        26.5426   28.8113    1.0467 H         1 UNK         0.0940 
     87 H87        26.5510   27.1247    1.4559 H         1 UNK         0.0940 
     88 H88        29.0828   27.0802    1.1656 H         1 UNK         0.0703 
     89 H89        28.4309   28.1014   -1.3828 H         1 UNK         0.3081 
     90 H90        27.2347   26.7427   -3.0063 H         1 UNK         0.0719 
     91 H91        28.9768   25.3447   -4.1874 H         1 UNK         0.0809 
     92 H92        29.5485   24.7412   -2.6331 H         1 UNK         0.0809 
     93 H93        29.7245   26.4441   -3.0401 H         1 UNK         0.0809 
     94 H94        27.0434   23.9505   -2.0049 H         1 UNK         0.2990 
     95 H95        23.7907   23.6683   -3.2705 H         1 UNK         0.0690 
     96 H96        26.1648   21.9559   -4.1966 H         1 UNK         0.0788 
     97 H97        24.9823   22.7175   -5.2522 H         1 UNK         0.0788 
     98 H98        24.4767   21.4436   -4.1542 H         1 UNK         0.0788 
     99 H99        25.6409   21.9696   -1.7985 H         1 UNK         0.2993 
    100 H100       25.8265   23.5975    1.0737 H         1 UNK         0.0949 
    101 H101       24.5057   22.1330    2.5675 H         1 UNK         0.0767 
    102 H102       23.4346   23.2397    1.7321 H         1 UNK         0.0767 
    103 H103       23.5378   21.5653    1.2053 H         1 UNK         0.0767 
    104 H104       25.9908   20.8895    1.1819 H         1 UNK         0.3013 
    105 H105       30.2668   28.5915    2.3471 H         1 UNK         0.3121 
    106 H106       30.5289   31.3473    1.4065 H         1 UNK         0.0774 
    107 H107       32.9655   31.2168    1.0843 H         1 UNK         0.0815 
    108 H108       32.9724   29.4932    1.4451 H         1 UNK         0.0815 
    109 H109       32.1940   30.0951   -0.0180 H         1 UNK         0.0815 
    110 H110       29.3454   30.1861    3.6904 H         1 UNK         0.2987 
    111 H111       30.9527   30.1195    6.0068 H         1 UNK         0.0949 
    112 H112       27.9874   30.7999    5.6545 H         1 UNK         0.0806 
    113 H113       28.6694   29.2070    5.9775 H         1 UNK         0.0806 
    114 H114       28.7644   30.4646    7.1953 H         1 UNK         0.0806 
    115 H115       32.1662   31.6734    6.7791 H         1 UNK         0.3010 
    116 H116       32.9950   33.5341    7.5667 H         1 UNK         0.0829 
    117 H117       30.7807   34.0362    8.6392 H         1 UNK         0.0813 
    118 H118       31.6550   35.4916    8.1945 H         1 UNK         0.0813 
    119 H119       30.3049   34.9562    7.2112 H         1 UNK         0.0813 
    120 H120       32.2170   33.1060    4.4387 H         1 UNK         0.3038 
    121 H121       33.3607   35.6786    3.4512 H         1 UNK         0.0769 
    122 H122       32.6564   34.8679    1.2258 H         1 UNK         0.0811 
    123 H123       31.2880   34.8880    2.3267 H         1 UNK         0.0811 
    124 H124       32.0681   33.3642    1.9148 H         1 UNK         0.0811 
    125 H125       33.8503   32.1177    3.3915 H         1 UNK         0.3204 
    126 H126       36.7727   32.5443    3.1547 H         1 UNK         0.0748 
    127 H127       36.9899   30.9488    1.2994 H         1 UNK         0.0771 
    128 H128       35.2572   30.6809    1.2499 H         1 UNK         0.0771 
    129 H129       35.9250   32.2495    0.7935 H         1 UNK         0.0771 
    130 H130       34.0824   30.6702    4.4239 H         1 UNK         0.2980 
    131 H131       35.9816   29.1177    5.9957 H         1 UNK         0.0545 
    132 H132       34.4412   27.5359    7.5384 H         1 UNK         0.3459 
    133 H133       33.2933   28.5335    8.3896 H         1 UNK         0.3459 
    134 H134       34.9449   26.9352    5.4924 H         1 UNK         0.0616 
    135 H135       35.6580   27.6326    4.0789 H         1 UNK         0.0616 
    136 H136       33.0658   25.4882    5.0205 H         1 UNK         0.0634 
    137 H137       32.1840   26.7640    5.8321 H         1 UNK         0.0634 
@<TRIPOS>BOND
     1    1    2 1    
     2    1   72 1    
     3    1   73 1    
     4    1   74 1    
     5    2    3 2    
     6    2    4 am   BACKBONE|DICT|INTERRES
     7    4    5 1    
     8    4   75 1    
     9    5    6 1    
    10    5   35 1    
    11    5   76 1    
    12    6    7 1    
    13    6   77 1    
    14    6   78 1    
    15    7    8 1    
    16    8    9 1    
    17    8   79 1    
    18    8   80 1    
    19    9   10 ar   
    20    9   14 ar   
    21   10   11 ar   
    22   10   81 1    
    23   11   12 ar   
    24   11   71 1    
    25   12   13 ar   
    26   12   82 1    
    27   13   14 ar   
    28   13   15 1    
    29   14   83 1    
    30   15   16 1    
    31   15   84 1    
    32   15   85 1    
    33   16   17 1    
    34   17   18 1    
    35   17   86 1    
    36   17   87 1    
    37   18   19 1    
    38   18   37 1    
    39   18   88 1    
    40   19   20 am   BACKBONE|DICT|INTERRES
    41   19   89 1    
    42   20   21 2    
    43   20   22 1    
    44   22   23 1    
    45   22   24 1    
    46   22   90 1    
    47   23   91 1    
    48   23   92 1    
    49   23   93 1    
    50   24   25 am   BACKBONE|DICT|INTERRES
    51   24   94 1    
    52   25   26 2    
    53   25   27 1    
    54   27   28 1    
    55   27   29 1    
    56   27   95 1    
    57   28   96 1    
    58   28   97 1    
    59   28   98 1    
    60   29   30 am   BACKBONE|DICT|INTERRES
    61   29   99 1    
    62   30   31 2    
    63   30   32 1    
    64   32   33 1    
    65   32   34 1    
    66   32  100 1    
    67   33  101 1    
    68   33  102 1    
    69   33  103 1    
    70   34   35 am   BACKBONE|DICT|INTERRES
    71   34  104 1    
    72   35   36 2    
    73   37   38 2    
    74   37   39 am   BACKBONE|DICT|INTERRES
    75   39   40 1    
    76   39  105 1    
    77   40   41 1    
    78   40   42 1    
    79   40  106 1    
    80   41  107 1    
    81   41  108 1    
    82   41  109 1    
    83   42   43 2    
    84   42   44 am   BACKBONE|DICT|INTERRES
    85   44   45 1    
    86   44  110 1    
    87   45   46 1    
    88   45   47 1    
    89   45  111 1    
    90   46  112 1    
    91   46  113 1    
    92   46  114 1    
    93   47   48 2    
    94   47   49 am   BACKBONE|DICT|INTERRES
    95   49   50 1    
    96   49  115 1    
    97   50   51 1    
    98   50   52 1    
    99   50  116 1    
   100   51  117 1    
   101   51  118 1    
   102   51  119 1    
   103   52   53 2    
   104   52   54 am   BACKBONE|DICT|INTERRES
   105   54   55 1    
   106   54  120 1    
   107   55   56 1    
   108   55   57 1    
   109   55  121 1    
   110   56  122 1    
   111   56  123 1    
   112   56  124 1    
   113   57   58 2    
   114   57   59 am   BACKBONE|DICT|INTERRES
   115   59   60 1    
   116   59  125 1    
   117   60   61 1    
   118   60   62 1    
   119   60  126 1    
   120   61  127 1    
   121   61  128 1    
   122   61  129 1    
   123   62   63 2    
   124   62   64 am   BACKBONE|DICT|INTERRES
   125   64   65 1    
   126   64  130 1    
   127   65   66 1    
   128   65   69 1    
   129   65  131 1    
   130   66   67 am   BACKBONE|DICT|INTERRES
   131   66   68 2    
   132   67  132 1    
   133   67  133 1    
   134   69   70 1    
   135   69  134 1    
   136   69  135 1    
   137   70   71 1    
   138   71  136 1    
   139   71  137 1    
@<TRIPOS>SUBSTRUCTURE
     1 UNK         1 GROUP             0       ****    0 ROOT    
