@<TRIPOS>MOLECULE
3R136
137   139    1
SMALL
USER_CHARGES


@<TRIPOS>ATOM
      1 CA         32.0965   20.3095   -3.7136 C.3       0 UNK        -0.1979 
      2 C          31.7652   21.2652   -2.5768 C.2       0 UNK         0.4864 
      3 O          32.5409   21.3783   -1.6265 O.2       0 UNK        -0.5359 
      4 N          30.6226   21.9530   -2.6674 N.am      1 UNK        -0.4318 
      5 CA         30.1443   22.9402   -1.7029 C.3       1 UNK         0.0824 
      6 C6         29.5260   22.2768   -0.4414 C.3       12 UNK        -0.0944 
      7 S7         29.4628   23.4151    0.9823 S.3       12 UNK        -0.2672 
      8 C8         30.8887   22.8522    1.9576 C.3       12 UNK         0.0333 
      9 C9         31.1407   23.8072    3.1118 C.ar      12 UNK        -0.0807 
     10 C10        32.0902   24.8254    2.9862 C.ar      12 UNK        -0.0894 
     11 C11        32.2860   25.7423    4.0225 C.ar      12 UNK        -0.0804 
     12 C12        31.5380   25.6241    5.1949 C.ar      12 UNK        -0.0824 
     13 C13        30.5844   24.6131    5.3313 C.ar      12 UNK        -0.0762 
     14 C14        30.3948   23.7003    4.2898 C.ar      12 UNK        -0.0782 
     15 C15        29.7361   24.5320    6.5904 C.3       12 UNK         0.0230 
     16 S16        28.0982   25.2899    6.3420 S.3       12 UNK        -0.2608 
     17 C17        28.5177   27.0496    6.0813 C.3       12 UNK        -0.0989 
     18 CA         28.4203   27.4758    4.5934 C.3       5 UNK         0.0716 
     19 N          27.0879   27.2114    4.0325 N.am      5 UNK        -0.4135 
     20 C          26.7245   27.4193    2.7610 C.2       4 UNK         0.5031 
     21 O          27.4779   27.8646    1.8906 O.2       4 UNK        -0.5229 
     22 CA         25.2523   27.1606    2.4269 C.3       4 UNK         0.0329 
     23 CB         24.3717   28.3189    2.9366 C.3       4 UNK        -0.2001 
     24 N          25.1177   27.0327    0.9800 N.am      4 UNK        -0.4303 
     25 C          24.0924   26.4694    0.3303 C.2       3 UNK         0.5044 
     26 O          23.1060   25.9933    0.8942 O.2       3 UNK        -0.5152 
     27 CA         24.1611   26.4332   -1.2105 C.3       3 UNK         0.0319 
     28 CB         23.2877   27.5496   -1.8068 C.3       3 UNK        -0.2001 
     29 N          25.5167   26.5465   -1.7610 N.am      3 UNK        -0.4354 
     30 C          26.4847   25.6323   -1.6096 C.2       2 UNK         0.4964 
     31 O          26.3241   24.5707   -1.0029 O.2       2 UNK        -0.5047 
     32 CA         27.8532   25.9835   -2.2260 C.3       2 UNK         0.0288 
     33 CB         28.3162   27.3927   -1.8106 C.3       2 UNK        -0.2113 
     34 N          28.8709   25.0213   -1.8046 N.am      2 UNK        -0.4145 
     35 C          29.1547   23.8725   -2.4274 C.2       1 UNK         0.5006 
     36 O          28.6719   23.5359   -3.5143 O.2       1 UNK        -0.5103 
     37 C          28.8400   28.9530    4.4311 C.2       5 UNK         0.5055 
     38 O          29.9911   29.2313    4.0940 O.2       5 UNK        -0.5220 
     39 N          27.8833   29.8714    4.6337 N.am      6 UNK        -0.4450 
     40 CA         28.0605   31.3142    4.4530 C.3       6 UNK         0.0367 
     41 CB         26.8798   32.0548    5.1011 C.3       6 UNK        -0.1929 
     42 C          28.2110   31.7329    2.9794 C.2       6 UNK         0.5070 
     43 O          28.8706   32.7361    2.7092 O.2       6 UNK        -0.5237 
     44 N          27.6089   30.9674    2.0566 N.am      7 UNK        -0.4739 
     45 CA         27.7450   31.1679    0.6114 C.3       7 UNK         0.0276 
     46 CB         26.5740   30.4980   -0.1278 C.3       7 UNK        -0.1927 
     47 C          29.0962   30.6480    0.0959 C.2       7 UNK         0.5013 
     48 O          29.6839   31.2732   -0.7871 O.2       7 UNK        -0.5193 
     49 N          29.5705   29.5324    0.6713 N.am      8 UNK        -0.4253 
     50 CA         30.9021   28.9721    0.4309 C.3       8 UNK         0.0242 
     51 CB         30.9775   27.5557    1.0216 C.3       8 UNK        -0.2000 
     52 C          32.0193   29.8777    0.9844 C.2       8 UNK         0.4948 
     53 O          33.0209   30.0773    0.2952 O.2       8 UNK        -0.5275 
     54 N          31.7825   30.4449    2.1788 N.am      9 UNK        -0.4246 
     55 CA         32.5819   31.4456    2.8979 C.3       9 UNK         0.0261 
     56 CB         32.7987   32.7080    2.0360 C.3       9 UNK        -0.1959 
     57 C          33.9041   30.8991    3.4682 C.2       9 UNK         0.5033 
     58 O          34.3000   29.7706    3.1761 O.2       9 UNK        -0.5390 
     59 N          34.5438   31.7082    4.3262 N.am      10 UNK        -0.4215 
     60 CA         35.7524   31.4315    5.1201 C.3       10 UNK         0.0240 
     61 CB         36.9674   31.0728    4.2393 C.3       10 UNK        -0.1982 
     62 C          35.5149   30.3925    6.2302 C.2       10 UNK         0.4970 
     63 O          35.6426   30.7309    7.4071 O.2       10 UNK        -0.4916 
     64 N          35.1392   29.1692    5.8424 N.am      11 UNK        -0.4279 
     65 CA         34.6744   28.0956    6.7369 C.3       11 UNK         0.1003 
     66 C          33.2249   28.2879    7.2752 C.2       11 UNK         0.5709 
     67 N          32.4502   29.2515    6.7910 N.am      11 UNK        -0.7358 
     68 O          32.7972   27.5514    8.1602 O.2       11 UNK        -0.4999 
     69 C69        34.9196   26.6623    6.1622 C.3       12 UNK        -0.0954 
     70 S70        34.9503   26.4849    4.3420 S.3       12 UNK        -0.2268 
     71 C71        33.2522   26.9007    3.8462 C.3       12 UNK         0.0203 
     72 H72        32.1975   19.2937   -3.3322 H         1 UNK         0.0888 
     73 H73        31.3239   20.3075   -4.4824 H         1 UNK         0.0888 
     74 H74        33.0390   20.5940   -4.1806 H         1 UNK         0.0888 
     75 H75        30.0298   21.8728   -3.4857 H         1 UNK         0.3017 
     76 H76        31.0032   23.5477   -1.4074 H         1 UNK         0.0873 
     77 H77        28.5187   21.9082   -0.6455 H         1 UNK         0.0745 
     78 H78        30.1037   21.3989   -0.1484 H         1 UNK         0.0745 
     79 H79        30.7016   21.8456    2.3346 H         1 UNK         0.0705 
     80 H80        31.7689   22.7884    1.3153 H         1 UNK         0.0705 
     81 H81        32.6568   24.9228    2.0702 H         1 UNK         0.1334 
     82 H82        31.6739   26.3391    5.9916 H         1 UNK         0.1417 
     83 H83        29.6441   22.9270    4.3828 H         1 UNK         0.1562 
     84 H84        30.2394   25.0150    7.4298 H         1 UNK         0.0748 
     85 H85        29.6034   23.4872    6.8753 H         1 UNK         0.0748 
     86 H86        29.5155   27.2467    6.4769 H         1 UNK         0.0940 
     87 H87        27.8376   27.6444    6.6942 H         1 UNK         0.0940 
     88 H88        29.1307   26.8791    4.0171 H         1 UNK         0.0703 
     89 H89        26.4122   26.8252    4.6759 H         1 UNK         0.3081 
     90 H90        24.9487   26.2234    2.8984 H         1 UNK         0.0719 
     91 H91        24.6454   29.2672    2.4721 H         1 UNK         0.0809 
     92 H92        23.3173   28.1396    2.7262 H         1 UNK         0.0809 
     93 H93        24.4626   28.4431    4.0162 H         1 UNK         0.0809 
     94 H94        25.9252   27.3513    0.4608 H         1 UNK         0.2990 
     95 H95        23.7516   25.4722   -1.5291 H         1 UNK         0.0690 
     96 H96        22.2610   27.4778   -1.4447 H         1 UNK         0.0788 
     97 H97        23.2494   27.4872   -2.8945 H         1 UNK         0.0788 
     98 H98        23.6588   28.5396   -1.5379 H         1 UNK         0.0788 
     99 H99        25.7213   27.3873   -2.2816 H         1 UNK         0.2993 
    100 H100       27.7512   25.9532   -3.3131 H         1 UNK         0.0949 
    101 H101       29.3367   27.5896   -2.1396 H         1 UNK         0.0767 
    102 H102       27.6896   28.1698   -2.2490 H         1 UNK         0.0767 
    103 H103       28.2845   27.5169   -0.7286 H         1 UNK         0.0767 
    104 H104       29.2441   25.1500   -0.8742 H         1 UNK         0.3013 
    105 H105       26.9659   29.5576    4.9143 H         1 UNK         0.3121 
    106 H106       28.9755   31.6098    4.9715 H         1 UNK         0.0774 
    107 H107       26.9985   33.1351    5.0058 H         1 UNK         0.0815 
    108 H108       25.9299   31.7898    4.6350 H         1 UNK         0.0815 
    109 H109       26.8070   31.8324    6.1659 H         1 UNK         0.0815 
    110 H110       27.1265   30.1324    2.3559 H         1 UNK         0.2987 
    111 H111       27.7023   32.2399    0.4044 H         1 UNK         0.0949 
    112 H112       26.5741   29.4168   -0.0015 H         1 UNK         0.0806 
    113 H113       25.6138   30.8770    0.2222 H         1 UNK         0.0806 
    114 H114       26.6295   30.6971   -1.1988 H         1 UNK         0.0806 
    115 H115       28.9780   29.0449    1.3363 H         1 UNK         0.3010 
    116 H116       31.0411   28.8958   -0.6495 H         1 UNK         0.0829 
    117 H117       30.2091   26.9042    0.6071 H         1 UNK         0.0813 
    118 H118       31.9417   27.0970    0.8018 H         1 UNK         0.0813 
    119 H119       30.8520   27.5628    2.1044 H         1 UNK         0.0813 
    120 H120       30.9750   30.1055    2.6957 H         1 UNK         0.3038 
    121 H121       31.9678   31.7299    3.7539 H         1 UNK         0.0769 
    122 H122       33.4827   32.5226    1.2073 H         1 UNK         0.0811 
    123 H123       33.2183   33.5253    2.6229 H         1 UNK         0.0811 
    124 H124       31.8567   33.0654    1.6187 H         1 UNK         0.0811 
    125 H125       34.1211   32.6073    4.5141 H         1 UNK         0.3204 
    126 H126       35.9920   32.3709    5.6215 H         1 UNK         0.0748 
    127 H127       37.8687   30.9745    4.8457 H         1 UNK         0.0771 
    128 H128       36.8339   30.1300    3.7083 H         1 UNK         0.0771 
    129 H129       37.1592   31.8482    3.4977 H         1 UNK         0.0771 
    130 H130       35.0124   29.0084    4.8465 H         1 UNK         0.2980 
    131 H131       35.2888   28.1610    7.6370 H         1 UNK         0.0545 
    132 H132       31.5217   29.3692    7.1621 H         1 UNK         0.3459 
    133 H133       32.7848   29.8619    6.0659 H         1 UNK         0.3459 
    134 H134       35.8995   26.3252    6.5031 H         1 UNK         0.0616 
    135 H135       34.2210   25.9294    6.5698 H         1 UNK         0.0616 
    136 H136       33.2784   27.1977    2.7978 H         1 UNK         0.0634 
    137 H137       32.8975   27.7772    4.3874 H         1 UNK         0.0634 
@<TRIPOS>BOND
     1    1    2 1    
     2    1   72 1    
     3    1   73 1    
     4    1   74 1    
     5    2    3 2    
     6    2    4 am   BACKBONE|DICT|INTERRES
     7    4    5 1    
     8    4   75 1    
     9    5    6 1    
    10    5   35 1    
    11    5   76 1    
    12    6    7 1    
    13    6   77 1    
    14    6   78 1    
    15    7    8 1    
    16    8    9 1    
    17    8   79 1    
    18    8   80 1    
    19    9   10 ar   
    20    9   14 ar   
    21   10   11 ar   
    22   10   81 1    
    23   11   12 ar   
    24   11   71 1    
    25   12   13 ar   
    26   12   82 1    
    27   13   14 ar   
    28   13   15 1    
    29   14   83 1    
    30   15   16 1    
    31   15   84 1    
    32   15   85 1    
    33   16   17 1    
    34   17   18 1    
    35   17   86 1    
    36   17   87 1    
    37   18   19 1    
    38   18   37 1    
    39   18   88 1    
    40   19   20 am   BACKBONE|DICT|INTERRES
    41   19   89 1    
    42   20   21 2    
    43   20   22 1    
    44   22   23 1    
    45   22   24 1    
    46   22   90 1    
    47   23   91 1    
    48   23   92 1    
    49   23   93 1    
    50   24   25 am   BACKBONE|DICT|INTERRES
    51   24   94 1    
    52   25   26 2    
    53   25   27 1    
    54   27   28 1    
    55   27   29 1    
    56   27   95 1    
    57   28   96 1    
    58   28   97 1    
    59   28   98 1    
    60   29   30 am   BACKBONE|DICT|INTERRES
    61   29   99 1    
    62   30   31 2    
    63   30   32 1    
    64   32   33 1    
    65   32   34 1    
    66   32  100 1    
    67   33  101 1    
    68   33  102 1    
    69   33  103 1    
    70   34   35 am   BACKBONE|DICT|INTERRES
    71   34  104 1    
    72   35   36 2    
    73   37   38 2    
    74   37   39 am   BACKBONE|DICT|INTERRES
    75   39   40 1    
    76   39  105 1    
    77   40   41 1    
    78   40   42 1    
    79   40  106 1    
    80   41  107 1    
    81   41  108 1    
    82   41  109 1    
    83   42   43 2    
    84   42   44 am   BACKBONE|DICT|INTERRES
    85   44   45 1    
    86   44  110 1    
    87   45   46 1    
    88   45   47 1    
    89   45  111 1    
    90   46  112 1    
    91   46  113 1    
    92   46  114 1    
    93   47   48 2    
    94   47   49 am   BACKBONE|DICT|INTERRES
    95   49   50 1    
    96   49  115 1    
    97   50   51 1    
    98   50   52 1    
    99   50  116 1    
   100   51  117 1    
   101   51  118 1    
   102   51  119 1    
   103   52   53 2    
   104   52   54 am   BACKBONE|DICT|INTERRES
   105   54   55 1    
   106   54  120 1    
   107   55   56 1    
   108   55   57 1    
   109   55  121 1    
   110   56  122 1    
   111   56  123 1    
   112   56  124 1    
   113   57   58 2    
   114   57   59 am   BACKBONE|DICT|INTERRES
   115   59   60 1    
   116   59  125 1    
   117   60   61 1    
   118   60   62 1    
   119   60  126 1    
   120   61  127 1    
   121   61  128 1    
   122   61  129 1    
   123   62   63 2    
   124   62   64 am   BACKBONE|DICT|INTERRES
   125   64   65 1    
   126   64  130 1    
   127   65   66 1    
   128   65   69 1    
   129   65  131 1    
   130   66   67 am   BACKBONE|DICT|INTERRES
   131   66   68 2    
   132   67  132 1    
   133   67  133 1    
   134   69   70 1    
   135   69  134 1    
   136   69  135 1    
   137   70   71 1    
   138   71  136 1    
   139   71  137 1    
@<TRIPOS>SUBSTRUCTURE
     1 UNK         1 GROUP             0       ****    0 ROOT    
