@<TRIPOS>MOLECULE
3R136
137   139    1
SMALL
USER_CHARGES


@<TRIPOS>ATOM
      1 CA         25.9176   30.9652    2.4891 C.3       0 UNK        -0.1979 
      2 C          25.9822   29.7382    1.5912 C.2       0 UNK         0.4864 
      3 O          24.9379   29.2278    1.1842 O.2       0 UNK        -0.5359 
      4 N          27.1989   29.2504    1.3099 N.am      1 UNK        -0.4318 
      5 CA         27.5033   28.1020    0.4478 C.3       1 UNK         0.0824 
      6 C6         29.0308   27.8388    0.4300 C.3       12 UNK        -0.0944 
      7 S7         29.5258   26.3541   -0.5101 S.3       12 UNK        -0.2672 
      8 C8         31.3139   26.3144   -0.1910 C.3       12 UNK         0.0333 
      9 C9         31.6022   25.6843    1.1596 C.ar      12 UNK        -0.0807 
     10 C10        31.8359   26.4822    2.2812 C.ar      12 UNK        -0.0894 
     11 C11        32.0709   25.9001    3.5287 C.ar      12 UNK        -0.0804 
     12 C12        32.0545   24.5072    3.6538 C.ar      12 UNK        -0.0824 
     13 C13        31.8162   23.6987    2.5367 C.ar      12 UNK        -0.0762 
     14 C14        31.6119   24.2942    1.2891 C.ar      12 UNK        -0.0782 
     15 C15        31.7604   22.1827    2.6767 C.3       12 UNK         0.0230 
     16 S16        30.1741   21.4875    2.0981 S.3       12 UNK        -0.2608 
     17 C17        28.9714   22.3918    3.1305 C.3       12 UNK        -0.0989 
     18 CA         28.1360   23.4154    2.3166 C.3       5 UNK         0.0716 
     19 N          27.3158   22.7473    1.3025 N.am      5 UNK        -0.4135 
     20 C          26.5536   23.3395    0.3745 C.2       4 UNK         0.5031 
     21 O          26.4671   24.5616    0.2008 O.2       4 UNK        -0.5229 
     22 CA         25.7343   22.3812   -0.5014 C.3       4 UNK         0.0329 
     23 CB         24.5169   21.8339    0.2649 C.3       4 UNK        -0.2001 
     24 N          25.2713   23.0950   -1.6849 N.am      4 UNK        -0.4303 
     25 C          25.2649   22.6276   -2.9383 C.2       3 UNK         0.5044 
     26 O          25.5800   21.4761   -3.2421 O.2       3 UNK        -0.5152 
     27 CA         24.8301   23.6050   -4.0499 C.3       3 UNK         0.0319 
     28 CB         23.4195   23.2550   -4.5523 C.3       3 UNK        -0.2001 
     29 N          24.8525   25.0136   -3.6381 N.am      3 UNK        -0.4354 
     30 C          25.9622   25.7262   -3.3989 C.2       2 UNK         0.4964 
     31 O          27.1014   25.2882   -3.5618 O.2       2 UNK        -0.5047 
     32 CA         25.7809   27.1506   -2.8599 C.3       2 UNK         0.0288 
     33 CB         24.3175   27.6451   -2.8093 C.3       2 UNK        -0.2113 
     34 N          26.3699   27.2027   -1.5254 N.am      2 UNK        -0.4145 
     35 C          26.9289   28.2856   -0.9752 C.2       1 UNK         0.5006 
     36 O          27.0191   29.3802   -1.5404 O.2       1 UNK        -0.5103 
     37 C          27.2729   24.2494    3.2821 C.2       5 UNK         0.5055 
     38 O          26.1785   23.8167    3.6536 O.2       5 UNK        -0.5220 
     39 N          27.8133   25.3921    3.7161 N.am      6 UNK        -0.4450 
     40 CA         27.2323   26.2741    4.7236 C.3       6 UNK         0.0367 
     41 CB         25.9792   26.9977    4.1838 C.3       6 UNK        -0.1929 
     42 C          28.3459   27.2005    5.2292 C.2       6 UNK         0.5070 
     43 O          29.2756   26.7078    5.8671 O.2       6 UNK        -0.5237 
     44 N          28.2498   28.5024    4.9388 N.am      7 UNK        -0.4739 
     45 CA         29.2259   29.5261    5.3138 C.3       7 UNK         0.0276 
     46 CB         28.4971   30.6399    6.0839 C.3       7 UNK        -0.1927 
     47 C          29.8932   30.1057    4.0598 C.2       7 UNK         0.5013 
     48 O          29.2889   30.1036    2.9848 O.2       7 UNK        -0.5193 
     49 N          31.1089   30.6290    4.2313 N.am      8 UNK        -0.4253 
     50 CA         31.8982   31.3230    3.2191 C.3       8 UNK         0.0242 
     51 CB         32.4898   30.3209    2.2093 C.3       8 UNK        -0.2000 
     52 C          33.0110   32.0890    3.9395 C.2       8 UNK         0.4948 
     53 O          33.3412   31.7496    5.0799 O.2       8 UNK        -0.5275 
     54 N          33.6072   33.0728    3.2532 N.am      9 UNK        -0.4246 
     55 CA         34.7083   33.9003    3.7656 C.3       9 UNK         0.0261 
     56 CB         35.0246   35.0134    2.7532 C.3       9 UNK        -0.1959 
     57 C          35.9836   33.1072    4.1107 C.2       9 UNK         0.5033 
     58 O          36.7230   33.5152    5.0070 O.2       9 UNK        -0.5390 
     59 N          36.2058   31.9846    3.4127 N.am      10 UNK        -0.4215 
     60 CA         37.2804   31.0297    3.6913 C.3       10 UNK         0.0240 
     61 CB         37.4726   30.1164    2.4692 C.3       10 UNK        -0.1982 
     62 C          37.0261   30.1853    4.9542 C.2       10 UNK         0.4970 
     63 O          37.9917   29.7563    5.5873 O.2       10 UNK        -0.4916 
     64 N          35.7505   29.9508    5.2877 N.am      11 UNK        -0.4279 
     65 CA         35.3220   29.1951    6.4728 C.3       11 UNK         0.1003 
     66 C          35.2219   30.0976    7.7299 C.2       11 UNK         0.5709 
     67 N          34.7192   31.3203    7.6065 N.am      11 UNK        -0.7358 
     68 O          35.6079   29.6872    8.8217 O.2       11 UNK        -0.4999 
     69 C69        33.9857   28.4464    6.2326 C.3       12 UNK        -0.0954 
     70 S70        34.0677   27.2896    4.8277 S.3       12 UNK        -0.2268 
     71 C71        32.3262   26.7840    4.7377 C.3       12 UNK         0.0203 
     72 H72        25.3299   31.7483    2.0110 H         1 UNK         0.0888 
     73 H73        25.4433   30.7131    3.4371 H         1 UNK         0.0888 
     74 H74        26.9074   31.3699    2.6996 H         1 UNK         0.0888 
     75 H75        28.0110   29.6976    1.7330 H         1 UNK         0.3017 
     76 H76        27.0155   27.2357    0.9000 H         1 UNK         0.0873 
     77 H77        29.5607   28.7019    0.0220 H         1 UNK         0.0745 
     78 H78        29.3860   27.7211    1.4545 H         1 UNK         0.0745 
     79 H79        31.8008   25.7352   -0.9770 H         1 UNK         0.0705 
     80 H80        31.7280   27.3223   -0.2512 H         1 UNK         0.0705 
     81 H81        31.8300   27.5574    2.1861 H         1 UNK         0.1334 
     82 H82        32.2223   24.0558    4.6223 H         1 UNK         0.1417 
     83 H83        31.4208   23.6739    0.4235 H         1 UNK         0.1562 
     84 H84        31.9204   21.8804    3.7129 H         1 UNK         0.0748 
     85 H85        32.5730   21.7416    2.0980 H         1 UNK         0.0748 
     86 H86        29.5045   22.8850    3.9460 H         1 UNK         0.0940 
     87 H87        28.3177   21.6601    3.6100 H         1 UNK         0.0940 
     88 H88        28.8108   24.0939    1.7908 H         1 UNK         0.0703 
     89 H89        27.3035   21.7401    1.3590 H         1 UNK         0.3081 
     90 H90        26.3835   21.5533   -0.7951 H         1 UNK         0.0719 
     91 H91        23.8568   22.6366    0.5964 H         1 UNK         0.0809 
     92 H92        23.9318   21.1550   -0.3560 H         1 UNK         0.0809 
     93 H93        24.8236   21.2772    1.1512 H         1 UNK         0.0809 
     94 H94        25.0617   24.0712   -1.5299 H         1 UNK         0.2990 
     95 H95        25.5289   23.4828   -4.8802 H         1 UNK         0.0690 
     96 H96        23.1262   23.8899   -5.3886 H         1 UNK         0.0788 
     97 H97        22.6715   23.3654   -3.7661 H         1 UNK         0.0788 
     98 H98        23.3743   22.2223   -4.9016 H         1 UNK         0.0788 
     99 H99        23.9571   25.4550   -3.4831 H         1 UNK         0.2993 
    100 H100       26.3448   27.8040   -3.5294 H         1 UNK         0.0949 
    101 H101       23.7094   27.0588   -2.1191 H         1 UNK         0.0767 
    102 H102       24.2702   28.6834   -2.4797 H         1 UNK         0.0767 
    103 H103       23.8495   27.6066   -3.7940 H         1 UNK         0.0767 
    104 H104       26.4183   26.3217   -1.0210 H         1 UNK         0.3013 
    105 H105       28.7464   25.6420    3.4148 H         1 UNK         0.3121 
    106 H106       26.9293   25.6673    5.5796 H         1 UNK         0.0774 
    107 H107       26.1776   27.4850    3.2334 H         1 UNK         0.0815 
    108 H108       25.6120   27.7477    4.8856 H         1 UNK         0.0815 
    109 H109       25.1603   26.2973    4.0205 H         1 UNK         0.0815 
    110 H110       27.4962   28.8123    4.3434 H         1 UNK         0.2987 
    111 H111       30.0011   29.1034    5.9571 H         1 UNK         0.0949 
    112 H112       27.7271   31.1164    5.4755 H         1 UNK         0.0806 
    113 H113       28.0190   30.2505    6.9829 H         1 UNK         0.0806 
    114 H114       29.1916   31.4194    6.4004 H         1 UNK         0.0806 
    115 H115       31.5346   30.6502    5.1506 H         1 UNK         0.3010 
    116 H116       31.2590   32.0411    2.7009 H         1 UNK         0.0829 
    117 H117       33.1246   30.8215    1.4775 H         1 UNK         0.0813 
    118 H118       33.0965   29.5618    2.7049 H         1 UNK         0.0813 
    119 H119       31.7036   29.8157    1.6487 H         1 UNK         0.0813 
    120 H120       33.2789   33.2849    2.3213 H         1 UNK         0.3038 
    121 H121       34.3622   34.3685    4.6896 H         1 UNK         0.0769 
    122 H122       35.3491   34.6083    1.7939 H         1 UNK         0.0811 
    123 H123       35.8235   35.6592    3.1207 H         1 UNK         0.0811 
    124 H124       34.1560   35.6476    2.5750 H         1 UNK         0.0811 
    125 H125       35.5599   31.7460    2.6748 H         1 UNK         0.3204 
    126 H126       38.2052   31.5892    3.8486 H         1 UNK         0.0748 
    127 H127       38.2889   29.4117    2.6342 H         1 UNK         0.0771 
    128 H128       36.5766   29.5318    2.2554 H         1 UNK         0.0771 
    129 H129       37.7203   30.6926    1.5774 H         1 UNK         0.0771 
    130 H130       35.0106   30.4014    4.7687 H         1 UNK         0.2980 
    131 H131       36.0766   28.4359    6.6888 H         1 UNK         0.0545 
    132 H132       34.3371   31.6245    6.7162 H         1 UNK         0.3459 
    133 H133       34.6557   31.9166    8.4155 H         1 UNK         0.3459 
    134 H134       33.1774   29.1566    6.0510 H         1 UNK         0.0616 
    135 H135       33.7036   27.8762    7.1197 H         1 UNK         0.0616 
    136 H136       32.0514   26.2652    5.6574 H         1 UNK         0.0634 
    137 H137       31.6948   27.6707    4.6806 H         1 UNK         0.0634 
@<TRIPOS>BOND
     1    1    2 1    
     2    1   72 1    
     3    1   73 1    
     4    1   74 1    
     5    2    3 2    
     6    2    4 am   BACKBONE|DICT|INTERRES
     7    4    5 1    
     8    4   75 1    
     9    5    6 1    
    10    5   35 1    
    11    5   76 1    
    12    6    7 1    
    13    6   77 1    
    14    6   78 1    
    15    7    8 1    
    16    8    9 1    
    17    8   79 1    
    18    8   80 1    
    19    9   10 ar   
    20    9   14 ar   
    21   10   11 ar   
    22   10   81 1    
    23   11   12 ar   
    24   11   71 1    
    25   12   13 ar   
    26   12   82 1    
    27   13   14 ar   
    28   13   15 1    
    29   14   83 1    
    30   15   16 1    
    31   15   84 1    
    32   15   85 1    
    33   16   17 1    
    34   17   18 1    
    35   17   86 1    
    36   17   87 1    
    37   18   19 1    
    38   18   37 1    
    39   18   88 1    
    40   19   20 am   BACKBONE|DICT|INTERRES
    41   19   89 1    
    42   20   21 2    
    43   20   22 1    
    44   22   23 1    
    45   22   24 1    
    46   22   90 1    
    47   23   91 1    
    48   23   92 1    
    49   23   93 1    
    50   24   25 am   BACKBONE|DICT|INTERRES
    51   24   94 1    
    52   25   26 2    
    53   25   27 1    
    54   27   28 1    
    55   27   29 1    
    56   27   95 1    
    57   28   96 1    
    58   28   97 1    
    59   28   98 1    
    60   29   30 am   BACKBONE|DICT|INTERRES
    61   29   99 1    
    62   30   31 2    
    63   30   32 1    
    64   32   33 1    
    65   32   34 1    
    66   32  100 1    
    67   33  101 1    
    68   33  102 1    
    69   33  103 1    
    70   34   35 am   BACKBONE|DICT|INTERRES
    71   34  104 1    
    72   35   36 2    
    73   37   38 2    
    74   37   39 am   BACKBONE|DICT|INTERRES
    75   39   40 1    
    76   39  105 1    
    77   40   41 1    
    78   40   42 1    
    79   40  106 1    
    80   41  107 1    
    81   41  108 1    
    82   41  109 1    
    83   42   43 2    
    84   42   44 am   BACKBONE|DICT|INTERRES
    85   44   45 1    
    86   44  110 1    
    87   45   46 1    
    88   45   47 1    
    89   45  111 1    
    90   46  112 1    
    91   46  113 1    
    92   46  114 1    
    93   47   48 2    
    94   47   49 am   BACKBONE|DICT|INTERRES
    95   49   50 1    
    96   49  115 1    
    97   50   51 1    
    98   50   52 1    
    99   50  116 1    
   100   51  117 1    
   101   51  118 1    
   102   51  119 1    
   103   52   53 2    
   104   52   54 am   BACKBONE|DICT|INTERRES
   105   54   55 1    
   106   54  120 1    
   107   55   56 1    
   108   55   57 1    
   109   55  121 1    
   110   56  122 1    
   111   56  123 1    
   112   56  124 1    
   113   57   58 2    
   114   57   59 am   BACKBONE|DICT|INTERRES
   115   59   60 1    
   116   59  125 1    
   117   60   61 1    
   118   60   62 1    
   119   60  126 1    
   120   61  127 1    
   121   61  128 1    
   122   61  129 1    
   123   62   63 2    
   124   62   64 am   BACKBONE|DICT|INTERRES
   125   64   65 1    
   126   64  130 1    
   127   65   66 1    
   128   65   69 1    
   129   65  131 1    
   130   66   67 am   BACKBONE|DICT|INTERRES
   131   66   68 2    
   132   67  132 1    
   133   67  133 1    
   134   69   70 1    
   135   69  134 1    
   136   69  135 1    
   137   70   71 1    
   138   71  136 1    
   139   71  137 1    
@<TRIPOS>SUBSTRUCTURE
     1 UNK         1 GROUP             0       ****    0 ROOT    
