@<TRIPOS>MOLECULE
3R136
137   139    1
SMALL
USER_CHARGES


@<TRIPOS>ATOM
      1 CA         25.3346   22.8895    2.7689 C.3       0 UNK        -0.1979 
      2 C          26.2387   21.9677    1.9656 C.2       0 UNK         0.4864 
      3 O          25.9697   20.7680    1.8933 O.2       0 UNK        -0.5359 
      4 N          27.3116   22.5108    1.3728 N.am      1 UNK        -0.4318 
      5 CA         28.2445   21.7631    0.5215 C.3       1 UNK         0.0824 
      6 C6         29.6567   22.3957    0.4871 C.3       12 UNK        -0.0944 
      7 S7         29.7215   24.1190   -0.1160 S.3       12 UNK        -0.2672 
      8 C8         31.3749   24.6036    0.4866 C.3       12 UNK         0.0333 
      9 C9         31.3358   25.4809    1.7348 C.ar      12 UNK        -0.0807 
     10 C10        32.2230   26.5557    1.8419 C.ar      12 UNK        -0.0894 
     11 C11        32.2088   27.3877    2.9646 C.ar      12 UNK        -0.0804 
     12 C12        31.2806   27.1512    3.9826 C.ar      12 UNK        -0.0824 
     13 C13        30.3914   26.0740    3.8967 C.ar      12 UNK        -0.0762 
     14 C14        30.4436   25.2291    2.7836 C.ar      12 UNK        -0.0782 
     15 C15        29.3735   25.8326    5.0083 C.3       12 UNK         0.0230 
     16 S16        27.6581   25.6392    4.4032 S.3       12 UNK        -0.2608 
     17 C17        27.4496   27.1072    3.3417 C.3       12 UNK        -0.0989 
     18 CA         27.1832   26.6967    1.8690 C.3       5 UNK         0.0716 
     19 N          25.7671   26.4111    1.6347 N.am      5 UNK        -0.4135 
     20 C          25.3035   25.7178    0.5901 C.2       4 UNK         0.5031 
     21 O          26.0254   25.0651   -0.1734 O.2       4 UNK        -0.5229 
     22 CA         23.7830   25.7537    0.3655 C.3       4 UNK         0.0329 
     23 CB         23.2540   27.1920    0.1983 C.3       4 UNK        -0.2001 
     24 N          23.5020   24.9872   -0.8392 N.am      4 UNK        -0.4303 
     25 C          22.3736   24.3455   -1.1588 C.2       3 UNK         0.5044 
     26 O          21.3434   24.3869   -0.4855 O.2       3 UNK        -0.5152 
     27 CA         22.4076   23.5050   -2.4537 C.3       3 UNK         0.0319 
     28 CB         21.6941   24.2463   -3.5960 C.3       3 UNK        -0.2001 
     29 N          23.7749   23.1718   -2.8761 N.am      3 UNK        -0.4354 
     30 C          24.5758   22.3158   -2.2255 C.2       2 UNK         0.4964 
     31 O          24.1846   21.5919   -1.3081 O.2       2 UNK        -0.5047 
     32 CA         26.0628   22.2946   -2.6161 C.3       2 UNK         0.0288 
     33 CB         26.4824   23.4168   -3.5894 C.3       2 UNK        -0.2113 
     34 N          26.8365   22.4280   -1.3841 N.am      2 UNK        -0.4145 
     35 C          27.6773   21.5091   -0.8917 C.2       1 UNK         0.5006 
     36 O          27.9975   20.4801   -1.4910 O.2       1 UNK        -0.5103 
     37 C          27.6325   27.8141    0.9130 C.2       5 UNK         0.5055 
     38 O          26.9448   28.8328    0.8046 O.2       5 UNK        -0.5220 
     39 N          28.8110   27.6470    0.3014 N.am      6 UNK        -0.4450 
     40 CA         29.5069   28.6829   -0.4668 C.3       6 UNK         0.0367 
     41 CB         30.4149   28.0044   -1.5093 C.3       6 UNK        -0.1929 
     42 C          30.2840   29.6020    0.4958 C.2       6 UNK         0.5070 
     43 O          31.5133   29.6439    0.4503 O.2       6 UNK        -0.5237 
     44 N          29.5370   30.2538    1.3980 N.am      7 UNK        -0.4739 
     45 CA         30.0151   30.9722    2.5803 C.3       7 UNK         0.0276 
     46 CB         28.8079   31.5646    3.3249 C.3       7 UNK        -0.1927 
     47 C          31.0571   32.0641    2.2845 C.2       7 UNK         0.5013 
     48 O          30.8976   32.8327    1.3329 O.2       7 UNK        -0.5193 
     49 N          32.0775   32.1257    3.1432 N.am      8 UNK        -0.4253 
     50 CA         33.1874   33.0679    3.1216 C.3       8 UNK         0.0242 
     51 CB         34.2175   32.6514    2.0549 C.3       8 UNK        -0.2000 
     52 C          33.8150   33.0491    4.5182 C.2       8 UNK         0.4948 
     53 O          33.7193   32.0299    5.2096 O.2       8 UNK        -0.5275 
     54 N          34.4741   34.1526    4.8973 N.am      9 UNK        -0.4246 
     55 CA         35.1099   34.3453    6.2087 C.3       9 UNK         0.0261 
     56 CB         35.6756   35.7719    6.2980 C.3       9 UNK        -0.1959 
     57 C          36.2018   33.3126    6.5439 C.2       9 UNK         0.5033 
     58 O          36.3907   32.9929    7.7185 O.2       9 UNK        -0.5390 
     59 N          36.8650   32.7767    5.5091 N.am      10 UNK        -0.4215 
     60 CA         37.8600   31.7047    5.5990 C.3       10 UNK         0.0240 
     61 CB         38.4709   31.4697    4.2077 C.3       10 UNK        -0.1982 
     62 C          37.3138   30.3828    6.1733 C.2       10 UNK         0.4970 
     63 O          38.0965   29.6129    6.7319 O.2       10 UNK        -0.4916 
     64 N          36.0014   30.1462    6.0407 N.am      11 UNK        -0.4279 
     65 CA         35.3024   28.9880    6.6183 C.3       11 UNK         0.1003 
     66 C          34.8532   29.2059    8.0936 C.2       11 UNK         0.5709 
     67 N          35.0759   30.3651    8.7048 N.am      11 UNK        -0.7358 
     68 O          34.3034   28.2941    8.7071 O.2       11 UNK        -0.4999 
     69 C69        34.1245   28.5177    5.7234 C.3       12 UNK        -0.0954 
     70 S70        34.6635   28.1122    4.0265 S.3       12 UNK        -0.2268 
     71 C71        33.1891   28.5489    3.0581 C.3       12 UNK         0.0203 
     72 H72        25.1211   22.4514    3.7435 H         1 UNK         0.0888 
     73 H73        25.7929   23.8622    2.9356 H         1 UNK         0.0888 
     74 H74        24.3901   23.0361    2.2457 H         1 UNK         0.0888 
     75 H75        27.4755   23.5052    1.4338 H         1 UNK         0.3017 
     76 H76        28.3689   20.7740    0.9689 H         1 UNK         0.0873 
     77 H77        30.3255   21.7918   -0.1295 H         1 UNK         0.0745 
     78 H78        30.0803   22.3622    1.4919 H         1 UNK         0.0745 
     79 H79        31.9808   23.7197    0.6901 H         1 UNK         0.0705 
     80 H80        31.8775   25.1303   -0.3257 H         1 UNK         0.0705 
     81 H81        32.9296   26.7517    1.0467 H         1 UNK         0.1334 
     82 H82        31.2577   27.8035    4.8447 H         1 UNK         0.1417 
     83 H83        29.7649   24.3901    2.7281 H         1 UNK         0.1562 
     84 H84        29.3911   26.6511    5.7298 H         1 UNK         0.0748 
     85 H85        29.6568   24.9337    5.5572 H         1 UNK         0.0748 
     86 H86        28.3392   27.7340    3.4307 H         1 UNK         0.0940 
     87 H87        26.6344   27.7176    3.7345 H         1 UNK         0.0940 
     88 H88        27.7653   25.8032    1.6350 H         1 UNK         0.0703 
     89 H89        25.1134   26.9304    2.2016 H         1 UNK         0.3081 
     90 H90        23.2999   25.2752    1.2199 H         1 UNK         0.0719 
     91 H91        23.7659   27.7162   -0.6100 H         1 UNK         0.0809 
     92 H92        22.1869   27.1985   -0.0250 H         1 UNK         0.0809 
     93 H93        23.3908   27.7786    1.1071 H         1 UNK         0.0809 
     94 H94        24.3195   24.8444   -1.4182 H         1 UNK         0.2990 
     95 H95        21.8690   22.5753   -2.2577 H         1 UNK         0.0690 
     96 H96        21.6574   23.6398   -4.5012 H         1 UNK         0.0788 
     97 H97        22.1896   25.1869   -3.8399 H         1 UNK         0.0788 
     98 H98        20.6641   24.4819   -3.3239 H         1 UNK         0.0788 
     99 H99        24.1643   23.7169   -3.6323 H         1 UNK         0.2993 
    100 H100       26.2507   21.3307   -3.0937 H         1 UNK         0.0949 
    101 H101       26.2882   24.4091   -3.1791 H         1 UNK         0.0767 
    102 H102       27.5495   23.3597   -3.8058 H         1 UNK         0.0767 
    103 H103       25.9631   23.3341   -4.5450 H         1 UNK         0.0767 
    104 H104       26.6248   23.2438   -0.8171 H         1 UNK         0.3013 
    105 H105       29.3316   26.7965    0.4699 H         1 UNK         0.3121 
    106 H106       28.7793   29.2963   -1.0028 H         1 UNK         0.0774 
    107 H107       31.1849   27.3929   -1.0386 H         1 UNK         0.0815 
    108 H108       30.9216   28.7481   -2.1255 H         1 UNK         0.0815 
    109 H109       29.8410   27.3636   -2.1788 H         1 UNK         0.0815 
    110 H110       28.5326   30.1426    1.3190 H         1 UNK         0.2987 
    111 H111       30.4737   30.2229    3.2278 H         1 UNK         0.0949 
    112 H112       28.1021   30.7884    3.6219 H         1 UNK         0.0806 
    113 H113       29.1216   32.0799    4.2339 H         1 UNK         0.0806 
    114 H114       28.2725   32.2880    2.7086 H         1 UNK         0.0806 
    115 H115       32.1104   31.5047    3.9431 H         1 UNK         0.3010 
    116 H116       32.8064   34.0693    2.9097 H         1 UNK         0.0829 
    117 H117       35.0609   33.3423    2.0297 H         1 UNK         0.0813 
    118 H118       34.6148   31.6537    2.2484 H         1 UNK         0.0813 
    119 H119       33.7771   32.6448    1.0577 H         1 UNK         0.0813 
    120 H120       34.5119   34.9365    4.2606 H         1 UNK         0.3038 
    121 H121       34.3293   34.2405    6.9653 H         1 UNK         0.0769 
    122 H122       36.4402   35.9524    5.5413 H         1 UNK         0.0811 
    123 H123       36.1335   35.9497    7.2723 H         1 UNK         0.0811 
    124 H124       34.8923   36.5194    6.1708 H         1 UNK         0.0811 
    125 H125       36.6372   33.1073    4.5831 H         1 UNK         0.3204 
    126 H126       38.6512   32.0466    6.2695 H         1 UNK         0.0748 
    127 H127       39.2396   30.6963    4.2444 H         1 UNK         0.0771 
    128 H128       37.7189   31.1470    3.4861 H         1 UNK         0.0771 
    129 H129       38.9430   32.3736    3.8220 H         1 UNK         0.0771 
    130 H130       35.4057   30.8408    5.6049 H         1 UNK         0.2980 
    131 H131       36.0076   28.1559    6.6598 H         1 UNK         0.0545 
    132 H132       35.5397   31.1300    8.2301 H         1 UNK         0.3459 
    133 H133       34.7814   30.4771    9.6617 H         1 UNK         0.3459 
    134 H134       33.3531   29.2886    5.6911 H         1 UNK         0.0616 
    135 H135       33.6528   27.6261    6.1404 H         1 UNK         0.0616 
    136 H136       33.5139   28.8456    2.0600 H         1 UNK         0.0634 
    137 H137       32.7049   29.4244    3.4864 H         1 UNK         0.0634 
@<TRIPOS>BOND
     1    1    2 1    
     2    1   72 1    
     3    1   73 1    
     4    1   74 1    
     5    2    3 2    
     6    2    4 am   BACKBONE|DICT|INTERRES
     7    4    5 1    
     8    4   75 1    
     9    5    6 1    
    10    5   35 1    
    11    5   76 1    
    12    6    7 1    
    13    6   77 1    
    14    6   78 1    
    15    7    8 1    
    16    8    9 1    
    17    8   79 1    
    18    8   80 1    
    19    9   10 ar   
    20    9   14 ar   
    21   10   11 ar   
    22   10   81 1    
    23   11   12 ar   
    24   11   71 1    
    25   12   13 ar   
    26   12   82 1    
    27   13   14 ar   
    28   13   15 1    
    29   14   83 1    
    30   15   16 1    
    31   15   84 1    
    32   15   85 1    
    33   16   17 1    
    34   17   18 1    
    35   17   86 1    
    36   17   87 1    
    37   18   19 1    
    38   18   37 1    
    39   18   88 1    
    40   19   20 am   BACKBONE|DICT|INTERRES
    41   19   89 1    
    42   20   21 2    
    43   20   22 1    
    44   22   23 1    
    45   22   24 1    
    46   22   90 1    
    47   23   91 1    
    48   23   92 1    
    49   23   93 1    
    50   24   25 am   BACKBONE|DICT|INTERRES
    51   24   94 1    
    52   25   26 2    
    53   25   27 1    
    54   27   28 1    
    55   27   29 1    
    56   27   95 1    
    57   28   96 1    
    58   28   97 1    
    59   28   98 1    
    60   29   30 am   BACKBONE|DICT|INTERRES
    61   29   99 1    
    62   30   31 2    
    63   30   32 1    
    64   32   33 1    
    65   32   34 1    
    66   32  100 1    
    67   33  101 1    
    68   33  102 1    
    69   33  103 1    
    70   34   35 am   BACKBONE|DICT|INTERRES
    71   34  104 1    
    72   35   36 2    
    73   37   38 2    
    74   37   39 am   BACKBONE|DICT|INTERRES
    75   39   40 1    
    76   39  105 1    
    77   40   41 1    
    78   40   42 1    
    79   40  106 1    
    80   41  107 1    
    81   41  108 1    
    82   41  109 1    
    83   42   43 2    
    84   42   44 am   BACKBONE|DICT|INTERRES
    85   44   45 1    
    86   44  110 1    
    87   45   46 1    
    88   45   47 1    
    89   45  111 1    
    90   46  112 1    
    91   46  113 1    
    92   46  114 1    
    93   47   48 2    
    94   47   49 am   BACKBONE|DICT|INTERRES
    95   49   50 1    
    96   49  115 1    
    97   50   51 1    
    98   50   52 1    
    99   50  116 1    
   100   51  117 1    
   101   51  118 1    
   102   51  119 1    
   103   52   53 2    
   104   52   54 am   BACKBONE|DICT|INTERRES
   105   54   55 1    
   106   54  120 1    
   107   55   56 1    
   108   55   57 1    
   109   55  121 1    
   110   56  122 1    
   111   56  123 1    
   112   56  124 1    
   113   57   58 2    
   114   57   59 am   BACKBONE|DICT|INTERRES
   115   59   60 1    
   116   59  125 1    
   117   60   61 1    
   118   60   62 1    
   119   60  126 1    
   120   61  127 1    
   121   61  128 1    
   122   61  129 1    
   123   62   63 2    
   124   62   64 am   BACKBONE|DICT|INTERRES
   125   64   65 1    
   126   64  130 1    
   127   65   66 1    
   128   65   69 1    
   129   65  131 1    
   130   66   67 am   BACKBONE|DICT|INTERRES
   131   66   68 2    
   132   67  132 1    
   133   67  133 1    
   134   69   70 1    
   135   69  134 1    
   136   69  135 1    
   137   70   71 1    
   138   71  136 1    
   139   71  137 1    
@<TRIPOS>SUBSTRUCTURE
     1 UNK         1 GROUP             0       ****    0 ROOT    
