@<TRIPOS>MOLECULE
3R136
137   139    1
SMALL
USER_CHARGES


@<TRIPOS>ATOM
      1 CA         28.2701   20.5159   -2.5791 C.3       0 UNK        -0.1979 
      2 C          29.5374   21.3579   -2.6062 C.2       0 UNK         0.4864 
      3 O          30.2022   21.4305   -3.6414 O.2       0 UNK        -0.5359 
      4 N          29.8790   21.9856   -1.4743 N.am      1 UNK        -0.4318 
      5 CA         31.0047   22.9141   -1.3326 C.3       1 UNK         0.0824 
      6 C6         31.4661   23.0156    0.1460 C.3       12 UNK        -0.0944 
      7 S7         30.1806   23.6093    1.2976 S.3       12 UNK        -0.2672 
      8 C8         30.8714   23.0652    2.8870 C.3       12 UNK         0.0333 
      9 C9         30.2152   23.8168    4.0321 C.ar      12 UNK        -0.0807 
     10 C10        30.6684   25.0947    4.3626 C.ar      12 UNK        -0.0894 
     11 C11        30.0594   25.8240    5.3837 C.ar      12 UNK        -0.0804 
     12 C12        29.0202   25.2461    6.1179 C.ar      12 UNK        -0.0824 
     13 C13        28.5231   23.9848    5.7643 C.ar      12 UNK        -0.0762 
     14 C14        29.1353   23.2674    4.7298 C.ar      12 UNK        -0.0782 
     15 C15        27.2784   23.4312    6.4478 C.3       12 UNK         0.0230 
     16 S16        25.8278   24.5286    6.2510 S.3       12 UNK        -0.2608 
     17 C17        25.6102   24.6228    4.4349 C.3       12 UNK        -0.0989 
     18 CA         26.3956   25.8028    3.7965 C.3       5 UNK         0.0716 
     19 N          26.8410   25.5280    2.4317 N.am      5 UNK        -0.4135 
     20 C          26.1109   25.5618    1.3121 C.2       4 UNK         0.5031 
     21 O          24.9000   25.7890    1.2711 O.2       4 UNK        -0.5229 
     22 CA         26.8973   25.3056    0.0123 C.3       4 UNK         0.0329 
     23 CB         26.0606   24.5119   -1.0072 C.3       4 UNK        -0.2001 
     24 N          27.4275   26.5085   -0.6434 N.am      4 UNK        -0.4303 
     25 C          28.0303   27.5750   -0.0919 C.2       3 UNK         0.5044 
     26 O          28.1619   27.7647    1.1174 O.2       3 UNK        -0.5152 
     27 CA         28.6340   28.5744   -1.0992 C.3       3 UNK         0.0319 
     28 CB         29.1677   29.8626   -0.4366 C.3       3 UNK        -0.2001 
     29 N          29.6662   27.9270   -1.9215 N.am      3 UNK        -0.4354 
     30 C          30.7999   27.3536   -1.4877 C.2       2 UNK         0.4964 
     31 O          31.2314   27.4275   -0.3361 O.2       2 UNK        -0.5047 
     32 CA         31.5900   26.5346   -2.5224 C.3       2 UNK         0.0288 
     33 CB         32.9911   27.1291   -2.7442 C.3       2 UNK        -0.2113 
     34 N          31.7157   25.1422   -2.0846 N.am      2 UNK        -0.4145 
     35 C          30.6839   24.2951   -1.9513 C.2       1 UNK         0.5006 
     36 O          29.5284   24.5775   -2.2850 O.2       1 UNK        -0.5103 
     37 C          25.7819   27.2082    3.9926 C.2       5 UNK         0.5055 
     38 O          24.7983   27.3683    4.7186 O.2       5 UNK        -0.5220 
     39 N          26.4132   28.2112    3.3719 N.am      6 UNK        -0.4450 
     40 CA         26.2593   29.6293    3.6837 C.3       6 UNK         0.0367 
     41 CB         25.9704   30.3973    2.3849 C.3       6 UNK        -0.1929 
     42 C          27.5669   30.1202    4.3235 C.2       6 UNK         0.5070 
     43 O          28.6183   29.5086    4.1254 O.2       6 UNK        -0.5237 
     44 N          27.4991   31.2284    5.0699 N.am      7 UNK        -0.4739 
     45 CA         28.6432   31.8447    5.7523 C.3       7 UNK         0.0276 
     46 CB         28.1236   32.6770    6.9398 C.3       7 UNK        -0.1927 
     47 C          29.5156   32.6706    4.7840 C.2       7 UNK         0.5013 
     48 O          29.6304   33.8880    4.9408 O.2       7 UNK        -0.5193 
     49 N          30.0933   31.9984    3.7846 N.am      8 UNK        -0.4253 
     50 CA         30.9321   32.5663    2.7329 C.3       8 UNK         0.0242 
     51 CB         30.0392   33.2183    1.6573 C.3       8 UNK        -0.2000 
     52 C          31.8047   31.4569    2.1315 C.2       8 UNK         0.4948 
     53 O          31.6143   30.2862    2.4701 O.2       8 UNK        -0.5275 
     54 N          32.7327   31.8554    1.2464 N.am      9 UNK        -0.4246 
     55 CA         33.6260   31.0282    0.4215 C.3       9 UNK         0.0261 
     56 CB         32.8730   30.4835   -0.8059 C.3       9 UNK        -0.1959 
     57 C          34.3639   29.9373    1.2173 C.2       9 UNK         0.5033 
     58 O          35.4137   30.2336    1.7898 O.2       9 UNK        -0.5390 
     59 N          33.7955   28.7235    1.2860 N.am      10 UNK        -0.4215 
     60 CA         34.2944   27.6040    2.0919 C.3       10 UNK         0.0240 
     61 CB         33.4288   26.3629    1.8232 C.3       10 UNK        -0.1982 
     62 C          34.3899   27.8973    3.6049 C.2       10 UNK         0.4970 
     63 O          35.2404   27.2987    4.2651 O.2       10 UNK        -0.4916 
     64 N          33.5639   28.8229    4.1126 N.am      11 UNK        -0.4279 
     65 CA         33.6605   29.3908    5.4699 C.3       11 UNK         0.1003 
     66 C          34.1158   30.8809    5.4633 C.2       11 UNK         0.5709 
     67 N          34.6754   31.4096    4.3811 N.am      11 UNK        -0.7358 
     68 O          33.9818   31.5767    6.4671 O.2       11 UNK        -0.4999 
     69 C69        32.3598   29.1793    6.2920 C.3       12 UNK        -0.0954 
     70 S70        31.9901   27.4153    6.5731 S.3       12 UNK        -0.2268 
     71 C71        30.4634   27.2699    5.6093 C.3       12 UNK         0.0203 
     72 H72        27.5557   20.8913   -3.3113 H         1 UNK         0.0888 
     73 H73        28.5014   19.4802   -2.8268 H         1 UNK         0.0888 
     74 H74        27.7911   20.5318   -1.6001 H         1 UNK         0.0888 
     75 H75        29.2809   21.9170   -0.6636 H         1 UNK         0.3017 
     76 H76        31.8411   22.5065   -1.9050 H         1 UNK         0.0873 
     77 H77        31.8000   22.0324    0.4820 H         1 UNK         0.0745 
     78 H78        32.3374   23.6663    0.2385 H         1 UNK         0.0745 
     79 H79        30.7324   21.9887    2.9974 H         1 UNK         0.0705 
     80 H80        31.9478   23.2451    2.9010 H         1 UNK         0.0705 
     81 H81        31.4754   25.5399    3.8006 H         1 UNK         0.1334 
     82 H82        28.5343   25.8132    6.9004 H         1 UNK         0.1417 
     83 H83        28.7560   22.2946    4.4471 H         1 UNK         0.1562 
     84 H84        27.4846   23.3054    7.5115 H         1 UNK         0.0748 
     85 H85        27.0274   22.4412    6.0638 H         1 UNK         0.0748 
     86 H86        24.5468   24.6951    4.1997 H         1 UNK         0.0940 
     87 H87        25.9415   23.6738    4.0103 H         1 UNK         0.0940 
     88 H88        27.3396   25.8900    4.3205 H         1 UNK         0.0703 
     89 H89        27.8375   25.3890    2.3306 H         1 UNK         0.3081 
     90 H90        27.7580   24.6865    0.2627 H         1 UNK         0.0719 
     91 H91        25.6472   23.6090   -0.5557 H         1 UNK         0.0809 
     92 H92        26.6664   24.1971   -1.8576 H         1 UNK         0.0809 
     93 H93        25.2241   25.0994   -1.3876 H         1 UNK         0.0809 
     94 H94        27.4238   26.4676   -1.6519 H         1 UNK         0.2990 
     95 H95        27.8318   28.8660   -1.7790 H         1 UNK         0.0690 
     96 H96        29.6694   30.5065   -1.1585 H         1 UNK         0.0788 
     97 H97        29.8683   29.6451    0.3702 H         1 UNK         0.0788 
     98 H98        28.3520   30.4398   -0.0041 H         1 UNK         0.0788 
     99 H99        29.4200   27.7983   -2.8932 H         1 UNK         0.2993 
    100 H100       31.0579   26.5429   -3.4761 H         1 UNK         0.0949 
    101 H101       33.5544   26.5558   -3.4808 H         1 UNK         0.0767 
    102 H102       32.9225   28.1520   -3.1163 H         1 UNK         0.0767 
    103 H103       33.5726   27.1543   -1.8212 H         1 UNK         0.0767 
    104 H104       32.6299   24.8530   -1.7705 H         1 UNK         0.3013 
    105 H105       27.2134   27.9951    2.7782 H         1 UNK         0.3121 
    106 H106       25.4404   29.7894    4.3880 H         1 UNK         0.0774 
    107 H107       25.8452   31.4637    2.5759 H         1 UNK         0.0815 
    108 H108       26.7828   30.2859    1.6678 H         1 UNK         0.0815 
    109 H109       25.0557   30.0411    1.9108 H         1 UNK         0.0815 
    110 H110       26.6124   31.7044    5.1590 H         1 UNK         0.2987 
    111 H111       29.2791   31.0548    6.1596 H         1 UNK         0.0949 
    112 H112       27.4691   33.4858    6.6125 H         1 UNK         0.0806 
    113 H113       27.5672   32.0586    7.6445 H         1 UNK         0.0806 
    114 H114       28.9496   33.1284    7.4912 H         1 UNK         0.0806 
    115 H115       29.9543   30.9909    3.7215 H         1 UNK         0.3010 
    116 H116       31.5942   33.3161    3.1712 H         1 UNK         0.0829 
    117 H117       29.4290   34.0179    2.0774 H         1 UNK         0.0813 
    118 H118       30.6323   33.6593    0.8557 H         1 UNK         0.0813 
    119 H119       29.3658   32.4903    1.2036 H         1 UNK         0.0813 
    120 H120       32.8250   32.8500    1.0931 H         1 UNK         0.3038 
    121 H121       34.4006   31.6994    0.0469 H         1 UNK         0.0769 
    122 H122       32.0065   29.8952   -0.5175 H         1 UNK         0.0811 
    123 H123       33.5193   29.8515   -1.4155 H         1 UNK         0.0811 
    124 H124       32.5207   31.2946   -1.4430 H         1 UNK         0.0811 
    125 H125       32.8967   28.5852    0.8367 H         1 UNK         0.3204 
    126 H126       35.3082   27.3875    1.7493 H         1 UNK         0.0748 
    127 H127       33.7267   25.5235    2.4531 H         1 UNK         0.0771 
    128 H128       32.3744   26.5652    2.0128 H         1 UNK         0.0771 
    129 H129       33.5176   26.0381    0.7865 H         1 UNK         0.0771 
    130 H130       32.8900   29.2706    3.4954 H         1 UNK         0.2980 
    131 H131       34.4570   28.8823    6.0151 H         1 UNK         0.0545 
    132 H132       34.9752   32.3705    4.4129 H         1 UNK         0.3459 
    133 H133       34.8688   30.8521    3.5558 H         1 UNK         0.3459 
    134 H134       32.4464   29.6379    7.2785 H         1 UNK         0.0616 
    135 H135       31.5179   29.6729    5.8029 H         1 UNK         0.0616 
    136 H136       30.6056   27.7511    4.6397 H         1 UNK         0.0634 
    137 H137       29.6662   27.8198    6.1120 H         1 UNK         0.0634 
@<TRIPOS>BOND
     1    1    2 1    
     2    1   72 1    
     3    1   73 1    
     4    1   74 1    
     5    2    3 2    
     6    2    4 am   BACKBONE|DICT|INTERRES
     7    4    5 1    
     8    4   75 1    
     9    5    6 1    
    10    5   35 1    
    11    5   76 1    
    12    6    7 1    
    13    6   77 1    
    14    6   78 1    
    15    7    8 1    
    16    8    9 1    
    17    8   79 1    
    18    8   80 1    
    19    9   10 ar   
    20    9   14 ar   
    21   10   11 ar   
    22   10   81 1    
    23   11   12 ar   
    24   11   71 1    
    25   12   13 ar   
    26   12   82 1    
    27   13   14 ar   
    28   13   15 1    
    29   14   83 1    
    30   15   16 1    
    31   15   84 1    
    32   15   85 1    
    33   16   17 1    
    34   17   18 1    
    35   17   86 1    
    36   17   87 1    
    37   18   19 1    
    38   18   37 1    
    39   18   88 1    
    40   19   20 am   BACKBONE|DICT|INTERRES
    41   19   89 1    
    42   20   21 2    
    43   20   22 1    
    44   22   23 1    
    45   22   24 1    
    46   22   90 1    
    47   23   91 1    
    48   23   92 1    
    49   23   93 1    
    50   24   25 am   BACKBONE|DICT|INTERRES
    51   24   94 1    
    52   25   26 2    
    53   25   27 1    
    54   27   28 1    
    55   27   29 1    
    56   27   95 1    
    57   28   96 1    
    58   28   97 1    
    59   28   98 1    
    60   29   30 am   BACKBONE|DICT|INTERRES
    61   29   99 1    
    62   30   31 2    
    63   30   32 1    
    64   32   33 1    
    65   32   34 1    
    66   32  100 1    
    67   33  101 1    
    68   33  102 1    
    69   33  103 1    
    70   34   35 am   BACKBONE|DICT|INTERRES
    71   34  104 1    
    72   35   36 2    
    73   37   38 2    
    74   37   39 am   BACKBONE|DICT|INTERRES
    75   39   40 1    
    76   39  105 1    
    77   40   41 1    
    78   40   42 1    
    79   40  106 1    
    80   41  107 1    
    81   41  108 1    
    82   41  109 1    
    83   42   43 2    
    84   42   44 am   BACKBONE|DICT|INTERRES
    85   44   45 1    
    86   44  110 1    
    87   45   46 1    
    88   45   47 1    
    89   45  111 1    
    90   46  112 1    
    91   46  113 1    
    92   46  114 1    
    93   47   48 2    
    94   47   49 am   BACKBONE|DICT|INTERRES
    95   49   50 1    
    96   49  115 1    
    97   50   51 1    
    98   50   52 1    
    99   50  116 1    
   100   51  117 1    
   101   51  118 1    
   102   51  119 1    
   103   52   53 2    
   104   52   54 am   BACKBONE|DICT|INTERRES
   105   54   55 1    
   106   54  120 1    
   107   55   56 1    
   108   55   57 1    
   109   55  121 1    
   110   56  122 1    
   111   56  123 1    
   112   56  124 1    
   113   57   58 2    
   114   57   59 am   BACKBONE|DICT|INTERRES
   115   59   60 1    
   116   59  125 1    
   117   60   61 1    
   118   60   62 1    
   119   60  126 1    
   120   61  127 1    
   121   61  128 1    
   122   61  129 1    
   123   62   63 2    
   124   62   64 am   BACKBONE|DICT|INTERRES
   125   64   65 1    
   126   64  130 1    
   127   65   66 1    
   128   65   69 1    
   129   65  131 1    
   130   66   67 am   BACKBONE|DICT|INTERRES
   131   66   68 2    
   132   67  132 1    
   133   67  133 1    
   134   69   70 1    
   135   69  134 1    
   136   69  135 1    
   137   70   71 1    
   138   71  136 1    
   139   71  137 1    
@<TRIPOS>SUBSTRUCTURE
     1 UNK         1 GROUP             0       ****    0 ROOT    
