@<TRIPOS>MOLECULE
3R136
137   139    1
SMALL
USER_CHARGES


@<TRIPOS>ATOM
      1 CA         25.7103   27.0196    2.4561 C.3       0 UNK        -0.1979 
      2 C          25.6937   25.4987    2.4178 C.2       0 UNK         0.4864 
      3 O          24.6456   24.8907    2.6430 O.2       0 UNK        -0.5359 
      4 N          26.8365   24.8709    2.1142 N.am      1 UNK        -0.4318 
      5 CA         27.0352   23.4174    2.0426 C.3       1 UNK         0.0824 
      6 C6         28.5291   23.0544    2.2457 C.3       12 UNK        -0.0944 
      7 S7         29.1839   23.5167    3.8861 S.3       12 UNK        -0.2672 
      8 C8         30.8150   22.6961    3.8771 C.3       12 UNK         0.0333 
      9 C9         31.8817   23.5002    3.1394 C.ar      12 UNK        -0.0807 
     10 C10        32.8692   24.1959    3.8488 C.ar      12 UNK        -0.0894 
     11 C11        33.8764   24.8987    3.1749 C.ar      12 UNK        -0.0804 
     12 C12        33.8696   24.9184    1.7751 C.ar      12 UNK        -0.0824 
     13 C13        32.8712   24.2570    1.0561 C.ar      12 UNK        -0.0762 
     14 C14        31.9046   23.5213    1.7424 C.ar      12 UNK        -0.0782 
     15 C15        32.8275   24.3429   -0.4628 C.3       12 UNK         0.0230 
     16 S16        31.4392   25.3733   -1.0484 S.3       12 UNK        -0.2608 
     17 C17        31.8594   27.0153   -0.3585 C.3       12 UNK        -0.0989 
     18 CA         30.6664   27.8036    0.2394 C.3       5 UNK         0.0716 
     19 N          29.6352   28.0707   -0.7577 N.am      5 UNK        -0.4135 
     20 C          28.8735   29.1709   -0.7852 C.2       4 UNK         0.5031 
     21 O          29.0165   30.1142   -0.0053 O.2       4 UNK        -0.5229 
     22 CA         27.7931   29.2628   -1.8808 C.3       4 UNK         0.0329 
     23 CB         28.2488   30.2201   -2.9943 C.3       4 UNK        -0.2001 
     24 N          27.4333   27.9691   -2.4749 N.am      4 UNK        -0.4303 
     25 C          26.7448   27.0149   -1.8356 C.2       3 UNK         0.5044 
     26 O          26.2992   27.1462   -0.6927 O.2       3 UNK        -0.5152 
     27 CA         26.5387   25.6895   -2.5844 C.3       3 UNK         0.0319 
     28 CB         27.8898   25.0123   -2.8992 C.3       3 UNK        -0.2001 
     29 N          25.7398   24.8273   -1.7225 N.am      3 UNK        -0.4354 
     30 C          25.1532   23.6653   -2.0286 C.2       2 UNK         0.4964 
     31 O          25.1266   23.1894   -3.1651 O.2       2 UNK        -0.5047 
     32 CA         24.4986   22.9102   -0.8491 C.3       2 UNK         0.0288 
     33 CB         24.3183   21.4017   -1.1244 C.3       2 UNK        -0.2113 
     34 N          25.2015   23.1336    0.4254 N.am      2 UNK        -0.4145 
     35 C          26.4861   22.8585    0.7077 C.2       1 UNK         0.5006 
     36 O          27.2321   22.2394   -0.0545 O.2       1 UNK        -0.5103 
     37 C          30.0467   27.1508    1.4919 C.2       5 UNK         0.5055 
     38 O          29.1563   26.3062    1.3794 O.2       5 UNK        -0.5220 
     39 N          30.5376   27.5840    2.6550 N.am      6 UNK        -0.4450 
     40 CA         30.2212   27.1615    4.0160 C.3       6 UNK         0.0367 
     41 CB         28.7238   27.2981    4.3442 C.3       6 UNK        -0.1929 
     42 C          31.0294   28.0757    4.9351 C.2       6 UNK         0.5070 
     43 O          31.3133   29.2152    4.5456 O.2       6 UNK        -0.5237 
     44 N          31.3847   27.5890    6.1298 N.am      7 UNK        -0.4739 
     45 CA         32.1831   28.3007    7.1385 C.3       7 UNK         0.0276 
     46 CB         32.7917   27.2696    8.1065 C.3       7 UNK        -0.1927 
     47 C          31.3713   29.3959    7.8632 C.2       7 UNK         0.5013 
     48 O          31.1958   29.3429    9.0816 O.2       7 UNK        -0.5193 
     49 N          30.8764   30.3487    7.0702 N.am      8 UNK        -0.4253 
     50 CA         29.9869   31.4645    7.4013 C.3       8 UNK         0.0242 
     51 CB         28.6880   30.9794    8.0803 C.3       8 UNK        -0.2000 
     52 C          29.6311   32.2459    6.1251 C.2       8 UNK         0.4948 
     53 O          29.3837   33.4496    6.2092 O.2       8 UNK        -0.5275 
     54 N          29.6110   31.5524    4.9766 N.am      9 UNK        -0.4246 
     55 CA         29.4124   32.1059    3.6406 C.3       9 UNK         0.0261 
     56 CB         28.4084   31.2154    2.8852 C.3       9 UNK        -0.1959 
     57 C          30.7860   32.2410    2.9560 C.2       9 UNK         0.5033 
     58 O          31.7100   32.7689    3.5798 O.2       9 UNK        -0.5390 
     59 N          30.9355   31.7653    1.7087 N.am      10 UNK        -0.4215 
     60 CA         32.1571   31.9383    0.9058 C.3       10 UNK         0.0240 
     61 CB         31.8693   31.5941   -0.5665 C.3       10 UNK        -0.1982 
     62 C          33.4113   31.1939    1.4157 C.2       10 UNK         0.4970 
     63 O          34.4908   31.4343    0.8735 O.2       10 UNK        -0.4916 
     64 N          33.2700   30.3313    2.4321 N.am      11 UNK        -0.4279 
     65 CA         34.3852   29.6947    3.1536 C.3       11 UNK         0.1003 
     66 C          34.7311   30.4201    4.4898 C.2       11 UNK         0.5709 
     67 N          34.0389   31.4869    4.8789 N.am      11 UNK        -0.7358 
     68 O          35.6573   30.0172    5.1884 O.2       11 UNK        -0.4999 
     69 C69        34.1232   28.1760    3.3564 C.3       12 UNK        -0.0954 
     70 S70        35.6101   27.1393    3.2331 S.3       12 UNK        -0.2268 
     71 C71        34.9835   25.5895    3.9749 C.3       12 UNK         0.0203 
     72 H72        26.6445   27.4231    2.0648 H         1 UNK         0.0888 
     73 H73        24.8976   27.4189    1.8500 H         1 UNK         0.0888 
     74 H74        25.5830   27.3737    3.4785 H         1 UNK         0.0888 
     75 H75        27.6661   25.4223    1.8881 H         1 UNK         0.3017 
     76 H76        26.4627   22.9447    2.8435 H         1 UNK         0.0873 
     77 H77        28.6861   21.9820    2.1147 H         1 UNK         0.0745 
     78 H78        29.1189   23.5582    1.4805 H         1 UNK         0.0745 
     79 H79        31.1206   22.5358    4.9120 H         1 UNK         0.0705 
     80 H80        30.7277   21.7026    3.4350 H         1 UNK         0.0705 
     81 H81        32.8674   24.1701    4.9300 H         1 UNK         0.1334 
     82 H82        34.6382   25.4573    1.2389 H         1 UNK         0.1417 
     83 H83        31.1640   22.9752    1.1777 H         1 UNK         0.1562 
     84 H84        32.7237   23.3398   -0.8788 H         1 UNK         0.0748 
     85 H85        33.7623   24.7431   -0.8588 H         1 UNK         0.0748 
     86 H86        32.3080   27.6008   -1.1627 H         1 UNK         0.0940 
     87 H87        32.6453   26.9212    0.3898 H         1 UNK         0.0940 
     88 H88        31.0754   28.7628    0.5604 H         1 UNK         0.0703 
     89 H89        29.4333   27.3154   -1.3946 H         1 UNK         0.3081 
     90 H90        26.8997   29.6838   -1.4145 H         1 UNK         0.0719 
     91 H91        29.1364   29.8495   -3.5085 H         1 UNK         0.0809 
     92 H92        27.4649   30.3676   -3.7374 H         1 UNK         0.0809 
     93 H93        28.4953   31.2022   -2.5877 H         1 UNK         0.0809 
     94 H94        27.7547   27.7952   -3.4167 H         1 UNK         0.2990 
     95 H95        25.9887   25.8876   -3.5062 H         1 UNK         0.0690 
     96 H96        27.7506   24.0659   -3.4218 H         1 UNK         0.0788 
     97 H97        28.4536   24.8048   -1.9882 H         1 UNK         0.0788 
     98 H98        28.5152   25.6355   -3.5389 H         1 UNK         0.0788 
     99 H99        25.6667   25.1858   -0.7774 H         1 UNK         0.2993 
    100 H100       23.5049   23.3446   -0.7303 H         1 UNK         0.0949 
    101 H101       23.8508   20.8975   -0.2786 H         1 UNK         0.0767 
    102 H102       23.6788   21.2366   -1.9924 H         1 UNK         0.0767 
    103 H103       25.2702   20.9091   -1.3250 H         1 UNK         0.0767 
    104 H104       24.6944   23.6673    1.1280 H         1 UNK         0.3013 
    105 H105       31.2357   28.3141    2.6486 H         1 UNK         0.3121 
    106 H106       30.5516   26.1311    4.1518 H         1 UNK         0.0774 
    107 H107       28.3250   28.2688    4.0504 H         1 UNK         0.0815 
    108 H108       28.5383   27.1763    5.4122 H         1 UNK         0.0815 
    109 H109       28.1483   26.5249    3.8435 H         1 UNK         0.0815 
    110 H110       31.0738   26.6623    6.3849 H         1 UNK         0.2987 
    111 H111       33.0113   28.8037    6.6339 H         1 UNK         0.0949 
    112 H112       32.0213   26.7160    8.6446 H         1 UNK         0.0806 
    113 H113       33.4166   26.5498    7.5774 H         1 UNK         0.0806 
    114 H114       33.4231   27.7575    8.8504 H         1 UNK         0.0806 
    115 H115       31.1484   30.2815    6.0935 H         1 UNK         0.3010 
    116 H116       30.5194   32.1381    8.0752 H         1 UNK         0.0829 
    117 H117       28.8785   30.5542    9.0652 H         1 UNK         0.0813 
    118 H118       27.9906   31.8057    8.2256 H         1 UNK         0.0813 
    119 H119       28.1786   30.2239    7.4809 H         1 UNK         0.0813 
    120 H120       29.8684   30.5744    4.9927 H         1 UNK         0.3038 
    121 H121       28.9886   33.1097    3.7094 H         1 UNK         0.0769 
    122 H122       28.8059   30.2181    2.6937 H         1 UNK         0.0811 
    123 H123       28.1309   31.6604    1.9291 H         1 UNK         0.0811 
    124 H124       27.4854   31.0967    3.4530 H         1 UNK         0.0811 
    125 H125       30.1489   31.3166    1.2462 H         1 UNK         0.3204 
    126 H126       32.4055   33.0012    0.9422 H         1 UNK         0.0748 
    127 H127       32.7115   31.8712   -1.2020 H         1 UNK         0.0771 
    128 H128       31.6962   30.5298   -0.7146 H         1 UNK         0.0771 
    129 H129       30.9969   32.1312   -0.9395 H         1 UNK         0.0771 
    130 H130       32.3718   30.2657    2.8912 H         1 UNK         0.2980 
    131 H131       35.2839   29.7901    2.5424 H         1 UNK         0.0545 
    132 H132       33.2796   31.8656    4.3218 H         1 UNK         0.3459 
    133 H133       34.2965   31.9430    5.7388 H         1 UNK         0.3459 
    134 H134       33.6709   27.9828    4.3267 H         1 UNK         0.0616 
    135 H135       33.4226   27.8027    2.6093 H         1 UNK         0.0616 
    136 H136       34.6406   25.8062    4.9881 H         1 UNK         0.0634 
    137 H137       35.8180   24.8946    4.0743 H         1 UNK         0.0634 
@<TRIPOS>BOND
     1    1    2 1    
     2    1   72 1    
     3    1   73 1    
     4    1   74 1    
     5    2    3 2    
     6    2    4 am   BACKBONE|DICT|INTERRES
     7    4    5 1    
     8    4   75 1    
     9    5    6 1    
    10    5   35 1    
    11    5   76 1    
    12    6    7 1    
    13    6   77 1    
    14    6   78 1    
    15    7    8 1    
    16    8    9 1    
    17    8   79 1    
    18    8   80 1    
    19    9   10 ar   
    20    9   14 ar   
    21   10   11 ar   
    22   10   81 1    
    23   11   12 ar   
    24   11   71 1    
    25   12   13 ar   
    26   12   82 1    
    27   13   14 ar   
    28   13   15 1    
    29   14   83 1    
    30   15   16 1    
    31   15   84 1    
    32   15   85 1    
    33   16   17 1    
    34   17   18 1    
    35   17   86 1    
    36   17   87 1    
    37   18   19 1    
    38   18   37 1    
    39   18   88 1    
    40   19   20 am   BACKBONE|DICT|INTERRES
    41   19   89 1    
    42   20   21 2    
    43   20   22 1    
    44   22   23 1    
    45   22   24 1    
    46   22   90 1    
    47   23   91 1    
    48   23   92 1    
    49   23   93 1    
    50   24   25 am   BACKBONE|DICT|INTERRES
    51   24   94 1    
    52   25   26 2    
    53   25   27 1    
    54   27   28 1    
    55   27   29 1    
    56   27   95 1    
    57   28   96 1    
    58   28   97 1    
    59   28   98 1    
    60   29   30 am   BACKBONE|DICT|INTERRES
    61   29   99 1    
    62   30   31 2    
    63   30   32 1    
    64   32   33 1    
    65   32   34 1    
    66   32  100 1    
    67   33  101 1    
    68   33  102 1    
    69   33  103 1    
    70   34   35 am   BACKBONE|DICT|INTERRES
    71   34  104 1    
    72   35   36 2    
    73   37   38 2    
    74   37   39 am   BACKBONE|DICT|INTERRES
    75   39   40 1    
    76   39  105 1    
    77   40   41 1    
    78   40   42 1    
    79   40  106 1    
    80   41  107 1    
    81   41  108 1    
    82   41  109 1    
    83   42   43 2    
    84   42   44 am   BACKBONE|DICT|INTERRES
    85   44   45 1    
    86   44  110 1    
    87   45   46 1    
    88   45   47 1    
    89   45  111 1    
    90   46  112 1    
    91   46  113 1    
    92   46  114 1    
    93   47   48 2    
    94   47   49 am   BACKBONE|DICT|INTERRES
    95   49   50 1    
    96   49  115 1    
    97   50   51 1    
    98   50   52 1    
    99   50  116 1    
   100   51  117 1    
   101   51  118 1    
   102   51  119 1    
   103   52   53 2    
   104   52   54 am   BACKBONE|DICT|INTERRES
   105   54   55 1    
   106   54  120 1    
   107   55   56 1    
   108   55   57 1    
   109   55  121 1    
   110   56  122 1    
   111   56  123 1    
   112   56  124 1    
   113   57   58 2    
   114   57   59 am   BACKBONE|DICT|INTERRES
   115   59   60 1    
   116   59  125 1    
   117   60   61 1    
   118   60   62 1    
   119   60  126 1    
   120   61  127 1    
   121   61  128 1    
   122   61  129 1    
   123   62   63 2    
   124   62   64 am   BACKBONE|DICT|INTERRES
   125   64   65 1    
   126   64  130 1    
   127   65   66 1    
   128   65   69 1    
   129   65  131 1    
   130   66   67 am   BACKBONE|DICT|INTERRES
   131   66   68 2    
   132   67  132 1    
   133   67  133 1    
   134   69   70 1    
   135   69  134 1    
   136   69  135 1    
   137   70   71 1    
   138   71  136 1    
   139   71  137 1    
@<TRIPOS>SUBSTRUCTURE
     1 UNK         1 GROUP             0       ****    0 ROOT    
