@<TRIPOS>MOLECULE
3R136
137   139    1
SMALL
USER_CHARGES


@<TRIPOS>ATOM
      1 CA         31.0312   25.5898   -3.6562 C.3       0 UNK        -0.1979 
      2 C          30.1280   24.6495   -2.8720 C.2       0 UNK         0.4864 
      3 O          30.0722   23.4587   -3.1818 O.2       0 UNK        -0.5359 
      4 N          29.4229   25.1838   -1.8661 N.am      1 UNK        -0.4318 
      5 CA         28.5201   24.4755   -0.9478 C.3       1 UNK         0.0824 
      6 C6         29.2506   23.5112    0.0240 C.3       12 UNK        -0.0944 
      7 S7         30.3495   24.4525    1.1283 S.3       12 UNK        -0.2672 
      8 C8         30.7427   23.2222    2.4056 C.3       12 UNK         0.0333 
      9 C9         31.3547   23.9200    3.6082 C.ar      12 UNK        -0.0807 
     10 C10        32.7103   24.2555    3.6147 C.ar      12 UNK        -0.0894 
     11 C11        33.2605   24.9576    4.6903 C.ar      12 UNK        -0.0804 
     12 C12        32.4352   25.3480    5.7507 C.ar      12 UNK        -0.0824 
     13 C13        31.0731   25.0264    5.7553 C.ar      12 UNK        -0.0762 
     14 C14        30.5525   24.2743    4.6953 C.ar      12 UNK        -0.0782 
     15 C15        30.2029   25.4930    6.9247 C.3       12 UNK         0.0230 
     16 S16        28.4250   25.7115    6.5435 S.3       12 UNK        -0.2608 
     17 C17        28.4345   27.1145    5.3714 C.3       12 UNK        -0.0989 
     18 CA         28.1188   26.6877    3.9096 C.3       5 UNK         0.0716 
     19 N          26.8759   25.9234    3.7623 N.am      5 UNK        -0.4135 
     20 C          25.6240   26.3739    3.9115 C.2       4 UNK         0.5031 
     21 O          25.3243   27.5308    4.2135 O.2       4 UNK        -0.5229 
     22 CA         24.5148   25.3385    3.6438 C.3       4 UNK         0.0329 
     23 CB         23.4210   25.4032    4.7245 C.3       4 UNK        -0.2001 
     24 N          23.8914   25.4740    2.3217 N.am      4 UNK        -0.4303 
     25 C          24.5229   25.5304    1.1408 C.2       3 UNK         0.5044 
     26 O          25.7526   25.5357    1.0064 O.2       3 UNK        -0.5152 
     27 CA         23.6250   25.5774   -0.1061 C.3       3 UNK         0.0319 
     28 CB         22.9073   26.9316   -0.2402 C.3       3 UNK        -0.2001 
     29 N          24.4791   25.3657   -1.2674 N.am      3 UNK        -0.4354 
     30 C          24.2551   24.5463   -2.3000 C.2       2 UNK         0.4964 
     31 O          23.1847   23.9741   -2.5074 O.2       2 UNK        -0.5047 
     32 CA         25.4441   24.3112   -3.2556 C.3       2 UNK         0.0288 
     33 CB         25.2980   25.1722   -4.5209 C.3       2 UNK        -0.2113 
     34 N          26.7407   24.5972   -2.6276 N.am      2 UNK        -0.4145 
     35 C          27.3045   23.8491   -1.6653 C.2       1 UNK         0.5006 
     36 O          26.8694   22.7488   -1.3188 O.2       1 UNK        -0.5103 
     37 C          28.2363   27.8466    2.8974 C.2       5 UNK         0.5055 
     38 O          28.7964   28.8943    3.2267 O.2       5 UNK        -0.5220 
     39 N          27.7541   27.6326    1.6626 N.am      6 UNK        -0.4450 
     40 CA         27.9687   28.5243    0.5184 C.3       6 UNK         0.0367 
     41 CB         26.8999   28.2530   -0.5553 C.3       6 UNK        -0.1929 
     42 C          29.4061   28.3878   -0.0237 C.2       6 UNK         0.5070 
     43 O          29.6107   27.8875   -1.1314 O.2       6 UNK        -0.5237 
     44 N          30.3708   28.8076    0.7959 N.am      7 UNK        -0.4739 
     45 CA         31.8046   28.8485    0.5280 C.3       7 UNK         0.0276 
     46 CB         32.5037   27.8315    1.4484 C.3       7 UNK        -0.1927 
     47 C          32.3151   30.2695    0.8044 C.2       7 UNK         0.5013 
     48 O          31.5840   31.0807    1.3828 O.2       7 UNK        -0.5193 
     49 N          33.5669   30.5433    0.4090 N.am      8 UNK        -0.4253 
     50 CA         34.2682   31.8184    0.6048 C.3       8 UNK         0.0242 
     51 CB         35.6973   31.7025    0.0478 C.3       8 UNK        -0.2000 
     52 C          34.2850   32.2425    2.0839 C.2       8 UNK         0.4948 
     53 O          34.9469   31.5903    2.8944 O.2       8 UNK        -0.5275 
     54 N          33.4849   33.2698    2.4102 N.am      9 UNK        -0.4246 
     55 CA         33.1960   33.7796    3.7594 C.3       9 UNK         0.0261 
     56 CB         34.4342   34.5016    4.3331 C.3       9 UNK        -0.1959 
     57 C          32.6444   32.7062    4.7250 C.2       9 UNK         0.5033 
     58 O          32.8789   32.7994    5.9316 O.2       9 UNK        -0.5390 
     59 N          31.9766   31.6754    4.1781 N.am      10 UNK        -0.4215 
     60 CA         31.5301   30.4479    4.8538 C.3       10 UNK         0.0240 
     61 CB         30.3496   30.7514    5.8008 C.3       10 UNK        -0.1982 
     62 C          32.6727   29.6753    5.5516 C.2       10 UNK         0.4970 
     63 O          32.4218   28.9842    6.5403 O.2       10 UNK        -0.4916 
     64 N          33.9043   29.8329    5.0417 N.am      11 UNK        -0.4279 
     65 CA         35.1667   29.3704    5.6390 C.3       11 UNK         0.1003 
     66 C          35.5561   30.0983    6.9636 C.2       11 UNK         0.5709 
     67 N          34.9488   31.2262    7.3167 N.am      11 UNK        -0.7358 
     68 O          36.4540   29.6540    7.6758 O.2       11 UNK        -0.4999 
     69 C69        35.2744   27.8232    5.7494 C.3       12 UNK        -0.0954 
     70 S70        35.0806   26.9782    4.1456 S.3       12 UNK        -0.2268 
     71 C71        34.7478   25.2788    4.7005 C.3       12 UNK         0.0203 
     72 H72        32.0654   25.2520   -3.5972 H         1 UNK         0.0888 
     73 H73        30.7359   25.6074   -4.7049 H         1 UNK         0.0888 
     74 H74        30.9861   26.6097   -3.2735 H         1 UNK         0.0888 
     75 H75        29.5395   26.1774   -1.6627 H         1 UNK         0.3017 
     76 H76        28.0812   25.2559   -0.3264 H         1 UNK         0.0873 
     77 H77        29.8257   22.7584   -0.5170 H         1 UNK         0.0745 
     78 H78        28.5343   22.9733    0.6478 H         1 UNK         0.0745 
     79 H79        31.4330   22.4806    2.0009 H         1 UNK         0.0705 
     80 H80        29.8386   22.6855    2.6970 H         1 UNK         0.0705 
     81 H81        33.3334   23.9790    2.7750 H         1 UNK         0.1334 
     82 H82        32.8531   25.9075    6.5758 H         1 UNK         0.1417 
     83 H83        29.5088   23.9947    4.6907 H         1 UNK         0.1562 
     84 H84        30.5860   26.4356    7.3202 H         1 UNK         0.0748 
     85 H85        30.2936   24.7626    7.7296 H         1 UNK         0.0748 
     86 H86        29.4104   27.6012    5.4216 H         1 UNK         0.0940 
     87 H87        27.7097   27.8548    5.7145 H         1 UNK         0.0940 
     88 H88        28.9069   26.0073    3.5945 H         1 UNK         0.0703 
     89 H89        26.9939   24.9647    3.4685 H         1 UNK         0.3081 
     90 H90        24.9590   24.3419    3.6880 H         1 UNK         0.0719 
     91 H91        22.8782   26.3489    4.6942 H         1 UNK         0.0809 
     92 H92        22.6973   24.5962    4.6084 H         1 UNK         0.0809 
     93 H93        23.8526   25.3079    5.7220 H         1 UNK         0.0809 
     94 H94        22.8821   25.5011    2.3163 H         1 UNK         0.2990 
     95 H95        22.8892   24.7741   -0.0287 H         1 UNK         0.0690 
     96 H96        23.6114   27.7626   -0.2822 H         1 UNK         0.0788 
     97 H97        22.2394   27.1115    0.6028 H         1 UNK         0.0788 
     98 H98        22.2996   26.9657   -1.1447 H         1 UNK         0.0788 
     99 H99        25.4169   25.7180   -1.1404 H         1 UNK         0.2993 
    100 H100       25.4274   23.2589   -3.5480 H         1 UNK         0.0949 
    101 H101       26.0992   24.9710   -5.2325 H         1 UNK         0.0767 
    102 H102       24.3555   24.9617   -5.0286 H         1 UNK         0.0767 
    103 H103       25.3124   26.2381   -4.2893 H         1 UNK         0.0767 
    104 H104       27.1910   25.4632   -2.8872 H         1 UNK         0.3013 
    105 H105       27.2542   26.7679    1.4787 H         1 UNK         0.3121 
    106 H106       27.8421   29.5572    0.8504 H         1 UNK         0.0774 
    107 H107       27.0197   28.9300   -1.4021 H         1 UNK         0.0815 
    108 H108       26.9563   27.2374   -0.9420 H         1 UNK         0.0815 
    109 H109       25.8979   28.4080   -0.1574 H         1 UNK         0.0815 
    110 H110       30.0839   29.2194    1.6792 H         1 UNK         0.2987 
    111 H111       32.0062   28.6037   -0.5172 H         1 UNK         0.0949 
    112 H112       33.5821   27.8193    1.2863 H         1 UNK         0.0806 
    113 H113       32.3365   28.0540    2.5032 H         1 UNK         0.0806 
    114 H114       32.1431   26.8201    1.2646 H         1 UNK         0.0806 
    115 H115       34.1008   29.8089   -0.0326 H         1 UNK         0.3010 
    116 H116       33.7403   32.5781    0.0246 H         1 UNK         0.0829 
    117 H117       35.6925   31.4780   -1.0190 H         1 UNK         0.0813 
    118 H118       36.2432   32.6379    0.1783 H         1 UNK         0.0813 
    119 H119       36.2665   30.9211    0.5535 H         1 UNK         0.0813 
    120 H120       32.9475   33.6975    1.6679 H         1 UNK         0.3038 
    121 H121       32.4018   34.5189    3.6465 H         1 UNK         0.0769 
    122 H122       34.1973   35.0024    5.2727 H         1 UNK         0.0811 
    123 H123       34.8034   35.2637    3.6470 H         1 UNK         0.0811 
    124 H124       35.2499   33.8057    4.5327 H         1 UNK         0.0811 
    125 H125       31.8438   31.6754    3.1679 H         1 UNK         0.3204 
    126 H126       31.1640   29.7867    4.0681 H         1 UNK         0.0748 
    127 H127       29.9373   29.8352    6.2239 H         1 UNK         0.0771 
    128 H128       30.6515   31.3870    6.6336 H         1 UNK         0.0771 
    129 H129       29.5388   31.2508    5.2706 H         1 UNK         0.0771 
    130 H130       34.0285   30.4423    4.2393 H         1 UNK         0.2980 
    131 H131       35.9344   29.6880    4.9327 H         1 UNK         0.0545 
    132 H132       35.2274   31.6821    8.1703 H         1 UNK         0.3459 
    133 H133       34.2119   31.6343    6.7493 H         1 UNK         0.3459 
    134 H134       36.2517   27.5355    6.1405 H         1 UNK         0.0616 
    135 H135       34.5422   27.4400    6.4590 H         1 UNK         0.0616 
    136 H136       35.1602   25.1172    5.6976 H         1 UNK         0.0634 
    137 H137       35.2824   24.5926    4.0420 H         1 UNK         0.0634 
@<TRIPOS>BOND
     1    1    2 1    
     2    1   72 1    
     3    1   73 1    
     4    1   74 1    
     5    2    3 2    
     6    2    4 am   BACKBONE|DICT|INTERRES
     7    4    5 1    
     8    4   75 1    
     9    5    6 1    
    10    5   35 1    
    11    5   76 1    
    12    6    7 1    
    13    6   77 1    
    14    6   78 1    
    15    7    8 1    
    16    8    9 1    
    17    8   79 1    
    18    8   80 1    
    19    9   10 ar   
    20    9   14 ar   
    21   10   11 ar   
    22   10   81 1    
    23   11   12 ar   
    24   11   71 1    
    25   12   13 ar   
    26   12   82 1    
    27   13   14 ar   
    28   13   15 1    
    29   14   83 1    
    30   15   16 1    
    31   15   84 1    
    32   15   85 1    
    33   16   17 1    
    34   17   18 1    
    35   17   86 1    
    36   17   87 1    
    37   18   19 1    
    38   18   37 1    
    39   18   88 1    
    40   19   20 am   BACKBONE|DICT|INTERRES
    41   19   89 1    
    42   20   21 2    
    43   20   22 1    
    44   22   23 1    
    45   22   24 1    
    46   22   90 1    
    47   23   91 1    
    48   23   92 1    
    49   23   93 1    
    50   24   25 am   BACKBONE|DICT|INTERRES
    51   24   94 1    
    52   25   26 2    
    53   25   27 1    
    54   27   28 1    
    55   27   29 1    
    56   27   95 1    
    57   28   96 1    
    58   28   97 1    
    59   28   98 1    
    60   29   30 am   BACKBONE|DICT|INTERRES
    61   29   99 1    
    62   30   31 2    
    63   30   32 1    
    64   32   33 1    
    65   32   34 1    
    66   32  100 1    
    67   33  101 1    
    68   33  102 1    
    69   33  103 1    
    70   34   35 am   BACKBONE|DICT|INTERRES
    71   34  104 1    
    72   35   36 2    
    73   37   38 2    
    74   37   39 am   BACKBONE|DICT|INTERRES
    75   39   40 1    
    76   39  105 1    
    77   40   41 1    
    78   40   42 1    
    79   40  106 1    
    80   41  107 1    
    81   41  108 1    
    82   41  109 1    
    83   42   43 2    
    84   42   44 am   BACKBONE|DICT|INTERRES
    85   44   45 1    
    86   44  110 1    
    87   45   46 1    
    88   45   47 1    
    89   45  111 1    
    90   46  112 1    
    91   46  113 1    
    92   46  114 1    
    93   47   48 2    
    94   47   49 am   BACKBONE|DICT|INTERRES
    95   49   50 1    
    96   49  115 1    
    97   50   51 1    
    98   50   52 1    
    99   50  116 1    
   100   51  117 1    
   101   51  118 1    
   102   51  119 1    
   103   52   53 2    
   104   52   54 am   BACKBONE|DICT|INTERRES
   105   54   55 1    
   106   54  120 1    
   107   55   56 1    
   108   55   57 1    
   109   55  121 1    
   110   56  122 1    
   111   56  123 1    
   112   56  124 1    
   113   57   58 2    
   114   57   59 am   BACKBONE|DICT|INTERRES
   115   59   60 1    
   116   59  125 1    
   117   60   61 1    
   118   60   62 1    
   119   60  126 1    
   120   61  127 1    
   121   61  128 1    
   122   61  129 1    
   123   62   63 2    
   124   62   64 am   BACKBONE|DICT|INTERRES
   125   64   65 1    
   126   64  130 1    
   127   65   66 1    
   128   65   69 1    
   129   65  131 1    
   130   66   67 am   BACKBONE|DICT|INTERRES
   131   66   68 2    
   132   67  132 1    
   133   67  133 1    
   134   69   70 1    
   135   69  134 1    
   136   69  135 1    
   137   70   71 1    
   138   71  136 1    
   139   71  137 1    
@<TRIPOS>SUBSTRUCTURE
     1 UNK         1 GROUP             0       ****    0 ROOT    
