@<TRIPOS>MOLECULE
3R136
137   139    1
SMALL
USER_CHARGES


@<TRIPOS>ATOM
      1 CA         32.6991   26.3128   -4.8731 C.3       0 UNK        -0.1979 
      2 C          31.6873   26.6148   -3.7773 C.2       0 UNK         0.4864 
      3 O          30.9769   27.6175   -3.8621 O.2       0 UNK        -0.5359 
      4 N          31.6232   25.7598   -2.7483 N.am      1 UNK        -0.4318 
      5 CA         30.6695   25.8548   -1.6404 C.3       1 UNK         0.0824 
      6 C6         31.1293   24.9867   -0.4429 C.3       12 UNK        -0.0944 
      7 S7         30.3095   25.4203    1.1259 S.3       12 UNK        -0.2672 
      8 C8         31.1126   24.2177    2.2253 C.3       12 UNK         0.0333 
      9 C9         30.6026   24.3474    3.6505 C.ar      12 UNK        -0.0807 
     10 C10        31.2684   25.1686    4.5652 C.ar      12 UNK        -0.0894 
     11 C11        30.8151   25.2757    5.8839 C.ar      12 UNK        -0.0804 
     12 C12        29.6756   24.5686    6.2779 C.ar      12 UNK        -0.0824 
     13 C13        28.9902   23.7583    5.3661 C.ar      12 UNK        -0.0762 
     14 C14        29.4678   23.6398    4.0573 C.ar      12 UNK        -0.0782 
     15 C15        27.7239   23.0272    5.7978 C.3       12 UNK         0.0230 
     16 S16        26.2495   23.5126    4.8344 S.3       12 UNK        -0.2608 
     17 C17        26.3169   25.3375    4.8848 C.3       12 UNK        -0.0989 
     18 CA         26.5197   25.9263    3.4590 C.3       5 UNK         0.0716 
     19 N          25.3661   25.7463    2.5687 N.am      5 UNK        -0.4135 
     20 C          24.1165   26.2048    2.7563 C.2       4 UNK         0.5031 
     21 O          23.7569   26.8218    3.7598 O.2       4 UNK        -0.5229 
     22 CA         23.0740   25.9681    1.6412 C.3       4 UNK         0.0329 
     23 CB         22.5638   27.3104    1.0872 C.3       4 UNK        -0.2001 
     24 N          23.5685   25.1666    0.5221 N.am      4 UNK        -0.4303 
     25 C          23.7875   23.8447    0.5355 C.2       3 UNK         0.5044 
     26 O          23.4743   23.1074    1.4699 O.2       3 UNK        -0.5152 
     27 CA         24.5161   23.2527   -0.6889 C.3       3 UNK         0.0319 
     28 CB         23.5216   22.5200   -1.6039 C.3       3 UNK        -0.2001 
     29 N          25.2633   24.2408   -1.4824 N.am      3 UNK        -0.4354 
     30 C          26.2849   24.9824   -1.0302 C.2       2 UNK         0.4964 
     31 O          26.7137   24.9272    0.1253 O.2       2 UNK        -0.5047 
     32 CA         26.8446   26.0312   -2.0007 C.3       2 UNK         0.0288 
     33 CB         26.0698   27.3517   -1.8524 C.3       2 UNK        -0.2113 
     34 N          28.2585   26.2814   -1.7341 N.am      2 UNK        -0.4145 
     35 C          29.2540   25.4746   -2.1172 C.2       1 UNK         0.5006 
     36 O          29.0943   24.4644   -2.8095 O.2       1 UNK        -0.5103 
     37 C          26.9588   27.4021    3.4534 C.2       5 UNK         0.5055 
     38 O          26.9212   28.0717    4.4882 O.2       5 UNK        -0.5220 
     39 N          27.3443   27.8853    2.2663 N.am      6 UNK        -0.4450 
     40 CA         27.8198   29.2430    2.0273 C.3       6 UNK         0.0367 
     41 CB         26.6459   30.1339    1.5864 C.3       6 UNK        -0.1929 
     42 C          28.9119   29.2000    0.9553 C.2       6 UNK         0.5070 
     43 O          28.8088   28.4141    0.0112 O.2       6 UNK        -0.5237 
     44 N          29.9204   30.0585    1.1157 N.am      7 UNK        -0.4739 
     45 CA         31.0902   30.2233    0.2568 C.3       7 UNK         0.0276 
     46 CB         32.0432   29.0145    0.3849 C.3       7 UNK        -0.1927 
     47 C          31.8070   31.5034    0.7061 C.2       7 UNK         0.5013 
     48 O          31.5234   32.0113    1.7973 O.2       7 UNK        -0.5193 
     49 N          32.7542   31.9799   -0.1109 N.am      8 UNK        -0.4253 
     50 CA         33.6545   33.0827    0.2318 C.3       8 UNK         0.0242 
     51 CB         34.4379   33.5135   -1.0205 C.3       8 UNK        -0.2000 
     52 C          34.5996   32.6619    1.3714 C.2       8 UNK         0.4948 
     53 O          35.4815   31.8311    1.1443 O.2       8 UNK        -0.5275 
     54 N          34.3614   33.2124    2.5714 N.am      9 UNK        -0.4246 
     55 CA         35.0359   32.9006    3.8394 C.3       9 UNK         0.0261 
     56 CB         36.5097   33.3610    3.8082 C.3       9 UNK        -0.1959 
     57 C          34.8727   31.4240    4.2597 C.2       9 UNK         0.5033 
     58 O          35.8435   30.7969    4.6933 O.2       9 UNK        -0.5390 
     59 N          33.6448   30.8970    4.1177 N.am      10 UNK        -0.4215 
     60 CA         33.2537   29.5218    4.4495 C.3       10 UNK         0.0240 
     61 CB         31.7394   29.3525    4.2380 C.3       10 UNK        -0.1982 
     62 C          33.6298   29.1306    5.8879 C.2       10 UNK         0.4970 
     63 O          33.1391   29.7547    6.8312 O.2       10 UNK        -0.4916 
     64 N          34.4902   28.1125    6.0131 N.am      11 UNK        -0.4279 
     65 CA         35.0326   27.5889    7.2793 C.3       11 UNK         0.1003 
     66 C          35.9233   28.5979    8.0715 C.2       11 UNK         0.5709 
     67 N          36.4077   29.6775    7.4662 N.am      11 UNK        -0.7358 
     68 O          36.2158   28.3833    9.2458 O.2       11 UNK        -0.4999 
     69 C69        33.9503   26.8971    8.1624 C.3       12 UNK        -0.0954 
     70 S70        33.1696   25.4776    7.3203 S.3       12 UNK        -0.2268 
     71 C71        31.5478   26.1700    6.8730 C.3       12 UNK         0.0203 
     72 H72        33.4032   27.1386   -4.9715 H         1 UNK         0.0888 
     73 H73        33.2673   25.4061   -4.6657 H         1 UNK         0.0888 
     74 H74        32.1901   26.1827   -5.8277 H         1 UNK         0.0888 
     75 H75        32.2078   24.9363   -2.7530 H         1 UNK         0.3017 
     76 H76        30.6505   26.8994   -1.3275 H         1 UNK         0.0873 
     77 H77        32.2014   25.1183   -0.2858 H         1 UNK         0.0745 
     78 H78        30.9813   23.9243   -0.6477 H         1 UNK         0.0745 
     79 H79        32.1933   24.3664    2.1978 H         1 UNK         0.0705 
     80 H80        30.9296   23.2081    1.8541 H         1 UNK         0.0705 
     81 H81        32.1463   25.7188    4.2548 H         1 UNK         0.1334 
     82 H82        29.3149   24.6594    7.2936 H         1 UNK         0.1417 
     83 H83        28.9413   23.0136    3.3494 H         1 UNK         0.1562 
     84 H84        27.5180   23.2024    6.8549 H         1 UNK         0.0748 
     85 H85        27.8779   21.9526    5.6909 H         1 UNK         0.0748 
     86 H86        27.1214   25.6525    5.5500 H         1 UNK         0.0940 
     87 H87        25.4050   25.7124    5.3495 H         1 UNK         0.0940 
     88 H88        27.3441   25.3812    2.9954 H         1 UNK         0.0703 
     89 H89        25.5859   25.2856    1.6912 H         1 UNK         0.3081 
     90 H90        22.2319   25.4408    2.0944 H         1 UNK         0.0719 
     91 H91        23.3677   27.8913    0.6327 H         1 UNK         0.0809 
     92 H92        21.7882   27.1620    0.3356 H         1 UNK         0.0809 
     93 H93        22.1288   27.9221    1.8789 H         1 UNK         0.0809 
     94 H94        23.8472   25.6752   -0.3035 H         1 UNK         0.2990 
     95 H95        25.2360   22.5236   -0.3109 H         1 UNK         0.0690 
     96 H96        24.0329   22.0159   -2.4243 H         1 UNK         0.0788 
     97 H97        22.7878   23.2037   -2.0328 H         1 UNK         0.0788 
     98 H98        22.9715   21.7568   -1.0513 H         1 UNK         0.0788 
     99 H99        24.9603   24.3654   -2.4384 H         1 UNK         0.2993 
    100 H100       26.7375   25.6683   -3.0254 H         1 UNK         0.0949 
    101 H101       26.4667   28.1193   -2.5173 H         1 UNK         0.0767 
    102 H102       25.0160   27.2220   -2.1019 H         1 UNK         0.0767 
    103 H103       26.1210   27.7370   -0.8332 H         1 UNK         0.0767 
    104 H104       28.4744   27.0676   -1.1203 H         1 UNK         0.3013 
    105 H105       27.4160   27.2638    1.4693 H         1 UNK         0.3121 
    106 H106       28.2535   29.6466    2.9453 H         1 UNK         0.0774 
    107 H107       26.9785   31.1566    1.4049 H         1 UNK         0.0815 
    108 H108       26.1876   29.7705    0.6660 H         1 UNK         0.0815 
    109 H109       25.8711   30.1752    2.3522 H         1 UNK         0.0815 
    110 H110       29.9099   30.7142    1.8893 H         1 UNK         0.2987 
    111 H111       30.7530   30.3335   -0.7761 H         1 UNK         0.0949 
    112 H112       32.7627   28.9994   -0.4342 H         1 UNK         0.0806 
    113 H113       32.6160   29.0390    1.3122 H         1 UNK         0.0806 
    114 H114       31.5127   28.0661    0.3646 H         1 UNK         0.0806 
    115 H115       32.9523   31.4867   -0.9695 H         1 UNK         0.3010 
    116 H116       33.0509   33.9319    0.5602 H         1 UNK         0.0829 
    117 H117       33.7683   33.8600   -1.8080 H         1 UNK         0.0813 
    118 H118       35.1180   34.3345   -0.7898 H         1 UNK         0.0813 
    119 H119       35.0386   32.6979   -1.4255 H         1 UNK         0.0813 
    120 H120       33.5838   33.8552    2.6435 H         1 UNK         0.3038 
    121 H121       34.5290   33.4868    4.6075 H         1 UNK         0.0769 
    122 H122       36.9758   33.2440    4.7873 H         1 UNK         0.0811 
    123 H123       36.5918   34.4129    3.5351 H         1 UNK         0.0811 
    124 H124       37.1008   32.7823    3.0976 H         1 UNK         0.0811 
    125 H125       32.9185   31.4870    3.7335 H         1 UNK         0.3204 
    126 H126       33.7722   28.8634    3.7497 H         1 UNK         0.0748 
    127 H127       31.4350   28.3147    4.3745 H         1 UNK         0.0771 
    128 H128       31.1605   29.9600    4.9350 H         1 UNK         0.0771 
    129 H129       31.4457   29.6376    3.2331 H         1 UNK         0.0771 
    130 H130       34.8628   27.6858    5.1778 H         1 UNK         0.2980 
    131 H131       35.7354   26.8107    6.9801 H         1 UNK         0.0545 
    132 H132       36.9929   30.3096    7.9883 H         1 UNK         0.3459 
    133 H133       36.1814   29.8843    6.4992 H         1 UNK         0.3459 
    134 H134       34.3974   26.5065    9.0780 H         1 UNK         0.0616 
    135 H135       33.1889   27.6099    8.4821 H         1 UNK         0.0616 
    136 H136       31.6722   27.1576    6.4337 H         1 UNK         0.0634 
    137 H137       30.9606   26.3112    7.7816 H         1 UNK         0.0634 
@<TRIPOS>BOND
     1    1    2 1    
     2    1   72 1    
     3    1   73 1    
     4    1   74 1    
     5    2    3 2    
     6    2    4 am   BACKBONE|DICT|INTERRES
     7    4    5 1    
     8    4   75 1    
     9    5    6 1    
    10    5   35 1    
    11    5   76 1    
    12    6    7 1    
    13    6   77 1    
    14    6   78 1    
    15    7    8 1    
    16    8    9 1    
    17    8   79 1    
    18    8   80 1    
    19    9   10 ar   
    20    9   14 ar   
    21   10   11 ar   
    22   10   81 1    
    23   11   12 ar   
    24   11   71 1    
    25   12   13 ar   
    26   12   82 1    
    27   13   14 ar   
    28   13   15 1    
    29   14   83 1    
    30   15   16 1    
    31   15   84 1    
    32   15   85 1    
    33   16   17 1    
    34   17   18 1    
    35   17   86 1    
    36   17   87 1    
    37   18   19 1    
    38   18   37 1    
    39   18   88 1    
    40   19   20 am   BACKBONE|DICT|INTERRES
    41   19   89 1    
    42   20   21 2    
    43   20   22 1    
    44   22   23 1    
    45   22   24 1    
    46   22   90 1    
    47   23   91 1    
    48   23   92 1    
    49   23   93 1    
    50   24   25 am   BACKBONE|DICT|INTERRES
    51   24   94 1    
    52   25   26 2    
    53   25   27 1    
    54   27   28 1    
    55   27   29 1    
    56   27   95 1    
    57   28   96 1    
    58   28   97 1    
    59   28   98 1    
    60   29   30 am   BACKBONE|DICT|INTERRES
    61   29   99 1    
    62   30   31 2    
    63   30   32 1    
    64   32   33 1    
    65   32   34 1    
    66   32  100 1    
    67   33  101 1    
    68   33  102 1    
    69   33  103 1    
    70   34   35 am   BACKBONE|DICT|INTERRES
    71   34  104 1    
    72   35   36 2    
    73   37   38 2    
    74   37   39 am   BACKBONE|DICT|INTERRES
    75   39   40 1    
    76   39  105 1    
    77   40   41 1    
    78   40   42 1    
    79   40  106 1    
    80   41  107 1    
    81   41  108 1    
    82   41  109 1    
    83   42   43 2    
    84   42   44 am   BACKBONE|DICT|INTERRES
    85   44   45 1    
    86   44  110 1    
    87   45   46 1    
    88   45   47 1    
    89   45  111 1    
    90   46  112 1    
    91   46  113 1    
    92   46  114 1    
    93   47   48 2    
    94   47   49 am   BACKBONE|DICT|INTERRES
    95   49   50 1    
    96   49  115 1    
    97   50   51 1    
    98   50   52 1    
    99   50  116 1    
   100   51  117 1    
   101   51  118 1    
   102   51  119 1    
   103   52   53 2    
   104   52   54 am   BACKBONE|DICT|INTERRES
   105   54   55 1    
   106   54  120 1    
   107   55   56 1    
   108   55   57 1    
   109   55  121 1    
   110   56  122 1    
   111   56  123 1    
   112   56  124 1    
   113   57   58 2    
   114   57   59 am   BACKBONE|DICT|INTERRES
   115   59   60 1    
   116   59  125 1    
   117   60   61 1    
   118   60   62 1    
   119   60  126 1    
   120   61  127 1    
   121   61  128 1    
   122   61  129 1    
   123   62   63 2    
   124   62   64 am   BACKBONE|DICT|INTERRES
   125   64   65 1    
   126   64  130 1    
   127   65   66 1    
   128   65   69 1    
   129   65  131 1    
   130   66   67 am   BACKBONE|DICT|INTERRES
   131   66   68 2    
   132   67  132 1    
   133   67  133 1    
   134   69   70 1    
   135   69  134 1    
   136   69  135 1    
   137   70   71 1    
   138   71  136 1    
   139   71  137 1    
@<TRIPOS>SUBSTRUCTURE
     1 UNK         1 GROUP             0       ****    0 ROOT    
