@<TRIPOS>MOLECULE
3R136
137   139    1
SMALL
USER_CHARGES


@<TRIPOS>ATOM
      1 CA         32.5389   19.0378    1.0749 C.3       0 UNK        -0.1979 
      2 C          31.9765   20.3681    0.5962 C.2       0 UNK         0.4864 
      3 O          31.9253   20.6108   -0.6101 O.2       0 UNK        -0.5359 
      4 N          31.5597   21.2299    1.5334 N.am      1 UNK        -0.4318 
      5 CA         30.9573   22.5432    1.2742 C.3       1 UNK         0.0824 
      6 C6         30.9037   23.4355    2.5428 C.3       12 UNK        -0.0944 
      7 S7         30.3908   22.5692    4.0720 S.3       12 UNK        -0.2672 
      8 C8         28.6442   23.0708    4.2604 C.3       12 UNK         0.0333 
      9 C9         28.3947   24.5632    4.4815 C.ar      12 UNK        -0.0807 
     10 C10        29.3818   25.4326    4.9627 C.ar      12 UNK        -0.0894 
     11 C11        29.1152   26.7952    5.1236 C.ar      12 UNK        -0.0804 
     12 C12        27.8366   27.2866    4.8516 C.ar      12 UNK        -0.0824 
     13 C13        26.8383   26.4293    4.3837 C.ar      12 UNK        -0.0762 
     14 C14        27.1243   25.0738    4.1985 C.ar      12 UNK        -0.0782 
     15 C15        25.4522   26.9618    4.0624 C.3       12 UNK         0.0230 
     16 S16        25.2659   27.2749    2.2812 S.3       12 UNK        -0.2608 
     17 C17        26.1385   28.8668    2.0720 C.3       12 UNK        -0.0989 
     18 CA         27.5775   28.7360    1.4980 C.3       5 UNK         0.0716 
     19 N          27.5967   27.9299    0.2764 N.am      5 UNK        -0.4135 
     20 C          28.6561   27.3176   -0.2624 C.2       4 UNK         0.5031 
     21 O          29.7958   27.3749    0.2064 O.2       4 UNK        -0.5229 
     22 CA         28.3758   26.4920   -1.5306 C.3       4 UNK         0.0329 
     23 CB         29.6611   25.9837   -2.2088 C.3       4 UNK        -0.2001 
     24 N          27.4905   25.3596   -1.2360 N.am      4 UNK        -0.4303 
     25 C          26.1539   25.4488   -1.1430 C.2       3 UNK         0.5044 
     26 O          25.5480   26.5102   -1.3052 O.2       3 UNK        -0.5152 
     27 CA         25.3402   24.1780   -0.8302 C.3       3 UNK         0.0319 
     28 CB         24.3093   23.9086   -1.9410 C.3       3 UNK        -0.2001 
     29 N          26.1735   22.9847   -0.6742 N.am      3 UNK        -0.4354 
     30 C          26.5028   22.4157    0.4924 C.2       2 UNK         0.4964 
     31 O          26.1229   22.8246    1.5898 O.2       2 UNK        -0.5047 
     32 CA         27.4245   21.1783    0.4344 C.3       2 UNK         0.0288 
     33 CB         27.5338   20.5380   -0.9692 C.3       2 UNK        -0.2113 
     34 N          28.7646   21.4615    0.9628 N.am      2 UNK        -0.4145 
     35 C          29.5836   22.4546    0.5798 C.2       1 UNK         0.5006 
     36 O          29.3034   23.2735   -0.2963 O.2       1 UNK        -0.5103 
     37 C          28.2174   30.1202    1.2453 C.2       5 UNK         0.5055 
     38 O          27.5093   31.1298    1.2167 O.2       5 UNK        -0.5220 
     39 N          29.5366   30.1487    1.0171 N.am      6 UNK        -0.4450 
     40 CA         30.3138   31.3406    0.6653 C.3       6 UNK         0.0367 
     41 CB         31.6552   30.9108    0.0468 C.3       6 UNK        -0.1929 
     42 C          30.5052   32.2956    1.8588 C.2       6 UNK         0.5070 
     43 O          31.5865   32.3436    2.4479 O.2       6 UNK        -0.5237 
     44 N          29.4348   33.0267    2.2016 N.am      7 UNK        -0.4739 
     45 CA         29.3603   34.1205    3.1845 C.3       7 UNK         0.0276 
     46 CB         30.1435   35.3449    2.6645 C.3       7 UNK        -0.1927 
     47 C          29.7809   33.7329    4.6177 C.2       7 UNK         0.5013 
     48 O          30.1977   34.6020    5.3852 O.2       7 UNK        -0.5193 
     49 N          29.6823   32.4345    4.9404 N.am      8 UNK        -0.4253 
     50 CA         30.1646   31.7831    6.1646 C.3       8 UNK         0.0242 
     51 CB         29.3739   32.2644    7.4003 C.3       8 UNK        -0.2000 
     52 C          31.6958   31.8768    6.3555 C.2       8 UNK         0.4948 
     53 O          32.1683   31.7958    7.4913 O.2       8 UNK        -0.5275 
     54 N          32.4399   32.0452    5.2532 N.am      9 UNK        -0.4246 
     55 CA         33.8958   32.1415    5.2160 C.3       9 UNK         0.0261 
     56 CB         34.2885   33.4279    4.4587 C.3       9 UNK        -0.1959 
     57 C          34.4556   30.8473    4.6037 C.2       9 UNK         0.5033 
     58 O          34.2564   29.7742    5.1775 O.2       9 UNK        -0.5390 
     59 N          35.1457   30.9477    3.4602 N.am      10 UNK        -0.4215 
     60 CA         35.7415   29.8301    2.7234 C.3       10 UNK         0.0240 
     61 CB         36.8832   30.3701    1.8409 C.3       10 UNK        -0.1982 
     62 C          34.6829   29.0532    1.9162 C.2       10 UNK         0.4970 
     63 O          34.7271   29.0497    0.6845 O.2       10 UNK        -0.4916 
     64 N          33.7323   28.4418    2.6311 N.am      11 UNK        -0.4279 
     65 CA         32.6272   27.6404    2.0881 C.3       11 UNK         0.1003 
     66 C          33.0908   26.4043    1.2692 C.2       11 UNK         0.5709 
     67 N          32.2816   25.9698    0.3145 N.am      11 UNK        -0.7358 
     68 O          34.1428   25.8170    1.5163 O.2       11 UNK        -0.4999 
     69 C69        31.6375   27.2143    3.1976 C.3       12 UNK        -0.0954 
     70 S70        30.9207   28.6195    4.1135 S.3       12 UNK        -0.2268 
     71 C71        30.2221   27.7447    5.5510 C.3       12 UNK         0.0203 
     72 H72        32.5295   18.9583    2.1619 H         1 UNK         0.0888 
     73 H73        31.9510   18.2146    0.6697 H         1 UNK         0.0888 
     74 H74        33.5678   18.9217    0.7356 H         1 UNK         0.0888 
     75 H75        31.6333   20.9823    2.5109 H         1 UNK         0.3017 
     76 H76        31.6117   23.0485    0.5606 H         1 UNK         0.0873 
     77 H77        31.9030   23.8302    2.7324 H         1 UNK         0.0745 
     78 H78        30.2798   24.3163    2.3782 H         1 UNK         0.0745 
     79 H79        28.0960   22.7350    3.3809 H         1 UNK         0.0705 
     80 H80        28.2244   22.5271    5.1075 H         1 UNK         0.0705 
     81 H81        30.3719   25.0630    5.1875 H         1 UNK         0.1334 
     82 H82        27.6290   28.3403    4.9779 H         1 UNK         0.1417 
     83 H83        26.3531   24.4147    3.8214 H         1 UNK         0.1562 
     84 H84        25.2381   27.8690    4.6294 H         1 UNK         0.0748 
     85 H85        24.7028   26.2305    4.3689 H         1 UNK         0.0748 
     86 H86        26.1574   29.3994    3.0244 H         1 UNK         0.0940 
     87 H87        25.5192   29.4733    1.4077 H         1 UNK         0.0940 
     88 H88        28.1929   28.2264    2.2417 H         1 UNK         0.0703 
     89 H89        26.6978   27.7776   -0.1687 H         1 UNK         0.3081 
     90 H90        27.8811   27.1554   -2.2434 H         1 UNK         0.0719 
     91 H91        30.3177   26.8143   -2.4710 H         1 UNK         0.0809 
     92 H92        30.2277   25.3153   -1.5621 H         1 UNK         0.0809 
     93 H93        29.4364   25.4450   -3.1292 H         1 UNK         0.0809 
     94 H94        27.9518   24.4841   -1.0019 H         1 UNK         0.2990 
     95 H95        24.7937   24.3761    0.0944 H         1 UNK         0.0690 
     96 H96        23.6978   23.0361   -1.7102 H         1 UNK         0.0788 
     97 H97        24.7896   23.7370   -2.9052 H         1 UNK         0.0788 
     98 H98        23.6297   24.7536   -2.0606 H         1 UNK         0.0788 
     99 H99        26.5598   22.5901   -1.5203 H         1 UNK         0.2993 
    100 H100       26.9757   20.4388    1.0995 H         1 UNK         0.0949 
    101 H101       28.0365   21.1890   -1.6855 H         1 UNK         0.0767 
    102 H102       28.0999   19.6073   -0.9262 H         1 UNK         0.0767 
    103 H103       26.5496   20.2919   -1.3707 H         1 UNK         0.0767 
    104 H104       29.0816   20.8569    1.7073 H         1 UNK         0.3013 
    105 H105       30.0239   29.2592    1.0063 H         1 UNK         0.3121 
    106 H106       29.7640   31.8851   -0.1056 H         1 UNK         0.0774 
    107 H107       32.3070   30.4431    0.7821 H         1 UNK         0.0815 
    108 H108       31.5152   30.2106   -0.7769 H         1 UNK         0.0815 
    109 H109       32.1919   31.7745   -0.3475 H         1 UNK         0.0815 
    110 H110       28.5669   32.8048    1.7218 H         1 UNK         0.2987 
    111 H111       28.3082   34.4025    3.2496 H         1 UNK         0.0949 
    112 H112       29.8234   35.6249    1.6610 H         1 UNK         0.0806 
    113 H113       29.9882   36.2144    3.3045 H         1 UNK         0.0806 
    114 H114       31.2166   35.1515    2.6332 H         1 UNK         0.0806 
    115 H115       29.3392   31.8137    4.2209 H         1 UNK         0.3010 
    116 H116       29.9473   30.7246    6.0383 H         1 UNK         0.0829 
    117 H117       29.5978   33.3028    7.6459 H         1 UNK         0.0813 
    118 H118       28.2988   32.1804    7.2417 H         1 UNK         0.0813 
    119 H119       29.6175   31.6650    8.2783 H         1 UNK         0.0813 
    120 H120       31.9789   32.0783    4.3470 H         1 UNK         0.3038 
    121 H121       34.3027   32.2122    6.2266 H         1 UNK         0.0769 
    122 H122       33.8840   34.3078    4.9597 H         1 UNK         0.0811 
    123 H123       33.9102   33.4378    3.4356 H         1 UNK         0.0811 
    124 H124       35.3714   33.5551    4.4232 H         1 UNK         0.0811 
    125 H125       35.2247   31.8595    3.0337 H         1 UNK         0.3204 
    126 H126       36.1802   29.1308    3.4386 H         1 UNK         0.0748 
    127 H127       36.5221   31.0906    1.1058 H         1 UNK         0.0771 
    128 H128       37.6510   30.8590    2.4409 H         1 UNK         0.0771 
    129 H129       37.3693   29.5611    1.2937 H         1 UNK         0.0771 
    130 H130       33.7519   28.5559    3.6390 H         1 UNK         0.2980 
    131 H131       32.0871   28.2869    1.3975 H         1 UNK         0.0545 
    132 H132       32.5530   25.1795   -0.2457 H         1 UNK         0.3459 
    133 H133       31.3915   26.4366    0.1544 H         1 UNK         0.3459 
    134 H134       32.1287   26.5433    3.9048 H         1 UNK         0.0616 
    135 H135       30.8070   26.6562    2.7622 H         1 UNK         0.0616 
    136 H136       29.8273   28.4657    6.2663 H         1 UNK         0.0634 
    137 H137       31.0177   27.2071    6.0692 H         1 UNK         0.0634 
@<TRIPOS>BOND
     1    1    2 1    
     2    1   72 1    
     3    1   73 1    
     4    1   74 1    
     5    2    3 2    
     6    2    4 am   BACKBONE|DICT|INTERRES
     7    4    5 1    
     8    4   75 1    
     9    5    6 1    
    10    5   35 1    
    11    5   76 1    
    12    6    7 1    
    13    6   77 1    
    14    6   78 1    
    15    7    8 1    
    16    8    9 1    
    17    8   79 1    
    18    8   80 1    
    19    9   10 ar   
    20    9   14 ar   
    21   10   11 ar   
    22   10   81 1    
    23   11   12 ar   
    24   11   71 1    
    25   12   13 ar   
    26   12   82 1    
    27   13   14 ar   
    28   13   15 1    
    29   14   83 1    
    30   15   16 1    
    31   15   84 1    
    32   15   85 1    
    33   16   17 1    
    34   17   18 1    
    35   17   86 1    
    36   17   87 1    
    37   18   19 1    
    38   18   37 1    
    39   18   88 1    
    40   19   20 am   BACKBONE|DICT|INTERRES
    41   19   89 1    
    42   20   21 2    
    43   20   22 1    
    44   22   23 1    
    45   22   24 1    
    46   22   90 1    
    47   23   91 1    
    48   23   92 1    
    49   23   93 1    
    50   24   25 am   BACKBONE|DICT|INTERRES
    51   24   94 1    
    52   25   26 2    
    53   25   27 1    
    54   27   28 1    
    55   27   29 1    
    56   27   95 1    
    57   28   96 1    
    58   28   97 1    
    59   28   98 1    
    60   29   30 am   BACKBONE|DICT|INTERRES
    61   29   99 1    
    62   30   31 2    
    63   30   32 1    
    64   32   33 1    
    65   32   34 1    
    66   32  100 1    
    67   33  101 1    
    68   33  102 1    
    69   33  103 1    
    70   34   35 am   BACKBONE|DICT|INTERRES
    71   34  104 1    
    72   35   36 2    
    73   37   38 2    
    74   37   39 am   BACKBONE|DICT|INTERRES
    75   39   40 1    
    76   39  105 1    
    77   40   41 1    
    78   40   42 1    
    79   40  106 1    
    80   41  107 1    
    81   41  108 1    
    82   41  109 1    
    83   42   43 2    
    84   42   44 am   BACKBONE|DICT|INTERRES
    85   44   45 1    
    86   44  110 1    
    87   45   46 1    
    88   45   47 1    
    89   45  111 1    
    90   46  112 1    
    91   46  113 1    
    92   46  114 1    
    93   47   48 2    
    94   47   49 am   BACKBONE|DICT|INTERRES
    95   49   50 1    
    96   49  115 1    
    97   50   51 1    
    98   50   52 1    
    99   50  116 1    
   100   51  117 1    
   101   51  118 1    
   102   51  119 1    
   103   52   53 2    
   104   52   54 am   BACKBONE|DICT|INTERRES
   105   54   55 1    
   106   54  120 1    
   107   55   56 1    
   108   55   57 1    
   109   55  121 1    
   110   56  122 1    
   111   56  123 1    
   112   56  124 1    
   113   57   58 2    
   114   57   59 am   BACKBONE|DICT|INTERRES
   115   59   60 1    
   116   59  125 1    
   117   60   61 1    
   118   60   62 1    
   119   60  126 1    
   120   61  127 1    
   121   61  128 1    
   122   61  129 1    
   123   62   63 2    
   124   62   64 am   BACKBONE|DICT|INTERRES
   125   64   65 1    
   126   64  130 1    
   127   65   66 1    
   128   65   69 1    
   129   65  131 1    
   130   66   67 am   BACKBONE|DICT|INTERRES
   131   66   68 2    
   132   67  132 1    
   133   67  133 1    
   134   69   70 1    
   135   69  134 1    
   136   69  135 1    
   137   70   71 1    
   138   71  136 1    
   139   71  137 1    
@<TRIPOS>SUBSTRUCTURE
     1 UNK         1 GROUP             0       ****    0 ROOT    
