@<TRIPOS>MOLECULE
3R136
137   139    1
SMALL
USER_CHARGES


@<TRIPOS>ATOM
      1 CA         33.2342   28.1499   -2.3250 C.3       0 UNK        -0.1979 
      2 C          32.0102   27.9253   -1.4507 C.2       0 UNK         0.4864 
      3 O          31.4181   28.8905   -0.9730 O.2       0 UNK        -0.5359 
      4 N          31.6280   26.6586   -1.2377 N.am      1 UNK        -0.4318 
      5 CA         30.5196   26.2399   -0.3639 C.3       1 UNK         0.0824 
      6 C6         30.5591   24.7193   -0.0579 C.3       12 UNK        -0.0944 
      7 S7         32.2167   24.1392    0.4413 S.3       12 UNK        -0.2672 
      8 C8         31.8270   22.6315    1.3848 C.3       12 UNK         0.0333 
      9 C9         31.4410   22.9247    2.8289 C.ar      12 UNK        -0.0807 
     10 C10        32.3174   23.6306    3.6600 C.ar      12 UNK        -0.0894 
     11 C11        31.9976   23.8666    4.9995 C.ar      12 UNK        -0.0804 
     12 C12        30.7949   23.3709    5.5104 C.ar      12 UNK        -0.0824 
     13 C13        29.8983   22.6806    4.6884 C.ar      12 UNK        -0.0762 
     14 C14        30.2313   22.4529    3.3488 C.ar      12 UNK        -0.0782 
     15 C15        28.5817   22.1687    5.2595 C.3       12 UNK         0.0230 
     16 S16        27.6039   23.5018    6.0285 S.3       12 UNK        -0.2608 
     17 C17        26.6437   24.1741    4.6282 C.3       12 UNK        -0.0989 
     18 CA         27.4514   24.8690    3.4895 C.3       5 UNK         0.0716 
     19 N          26.5925   25.3324    2.3978 N.am      5 UNK        -0.4135 
     20 C          25.6218   26.2565    2.4720 C.2       4 UNK         0.5031 
     21 O          25.2988   26.8264    3.5153 O.2       4 UNK        -0.5229 
     22 CA         24.8676   26.6035    1.1759 C.3       4 UNK         0.0329 
     23 CB         24.8959   28.1188    0.9090 C.3       4 UNK        -0.2001 
     24 N          25.4279   25.9196    0.0094 N.am      4 UNK        -0.4303 
     25 C          24.8027   25.0036   -0.7441 C.2       3 UNK         0.5044 
     26 O          23.6733   24.5770   -0.4979 O.2       3 UNK        -0.5152 
     27 CA         25.5701   24.4592   -1.9727 C.3       3 UNK         0.0319 
     28 CB         24.6331   24.1028   -3.1466 C.3       3 UNK        -0.2001 
     29 N          26.6671   25.3318   -2.4184 N.am      3 UNK        -0.4354 
     30 C          26.5751   26.6029   -2.8434 C.2       2 UNK         0.4964 
     31 O          25.5061   27.1699   -3.0740 O.2       2 UNK        -0.5047 
     32 CA         27.8963   27.3880   -2.9969 C.3       2 UNK         0.0288 
     33 CB         27.7150   28.8833   -2.6565 C.3       2 UNK        -0.2113 
     34 N          29.0399   26.8500   -2.2405 N.am      2 UNK        -0.4145 
     35 C          29.1336   26.6431   -0.9144 C.2       1 UNK         0.5006 
     36 O          28.1797   26.7354   -0.1402 O.2       1 UNK        -0.5103 
     37 C          28.4100   26.0044    3.9071 C.2       5 UNK         0.5055 
     38 O          29.3490   26.2927    3.1618 O.2       5 UNK        -0.5220 
     39 N          28.1574   26.6472    5.0546 N.am      6 UNK        -0.4450 
     40 CA         28.9530   27.7452    5.6077 C.3       6 UNK         0.0367 
     41 CB         28.7018   27.8333    7.1238 C.3       6 UNK        -0.1929 
     42 C          28.7114   29.0824    4.8798 C.2       6 UNK         0.5070 
     43 O          28.3071   30.0678    5.5001 O.2       6 UNK        -0.5237 
     44 N          28.9718   29.0912    3.5689 N.am      7 UNK        -0.4739 
     45 CA         29.0200   30.2812    2.7222 C.3       7 UNK         0.0276 
     46 CB         28.9895   29.8334    1.2547 C.3       7 UNK        -0.1927 
     47 C          30.2894   31.1009    3.0039 C.2       7 UNK         0.5013 
     48 O          31.2892   30.5439    3.4648 O.2       7 UNK        -0.5193 
     49 N          30.2471   32.4008    2.6828 N.am      8 UNK        -0.4253 
     50 CA         31.3217   33.3702    2.9400 C.3       8 UNK         0.0242 
     51 CB         30.8412   34.7746    2.5390 C.3       8 UNK        -0.2000 
     52 C          32.6693   33.0516    2.2631 C.2       8 UNK         0.4948 
     53 O          33.7087   33.4621    2.7799 O.2       8 UNK        -0.5275 
     54 N          32.6346   32.3242    1.1382 N.am      9 UNK        -0.4246 
     55 CA         33.8195   31.8300    0.4311 C.3       9 UNK         0.0261 
     56 CB         33.5124   31.7586   -1.0747 C.3       9 UNK        -0.1959 
     57 C          34.3347   30.4793    0.9731 C.2       9 UNK         0.5033 
     58 O          35.3806   30.0192    0.5111 O.2       9 UNK        -0.5390 
     59 N          33.6203   29.8731    1.9307 N.am      10 UNK        -0.4215 
     60 CA         34.0050   28.6641    2.6541 C.3       10 UNK         0.0240 
     61 CB         32.9514   27.5640    2.4003 C.3       10 UNK        -0.1982 
     62 C          34.1911   29.0296    4.1381 C.2       10 UNK         0.4970 
     63 O          34.8596   30.0211    4.4366 O.2       10 UNK        -0.4916 
     64 N          33.6215   28.2250    5.0410 N.am      11 UNK        -0.4279 
     65 CA         33.6663   28.4041    6.5003 C.3       11 UNK         0.1003 
     66 C          32.6639   29.4512    7.0735 C.2       11 UNK         0.5709 
     67 N          31.8475   30.1226    6.2715 N.am      11 UNK        -0.7358 
     68 O          32.6379   29.6750    8.2815 O.2       11 UNK        -0.4999 
     69 C69        33.5897   27.0374    7.2362 C.3       12 UNK        -0.0954 
     70 S70        32.1496   26.0299    6.7425 S.3       12 UNK        -0.2268 
     71 C71        32.9619   24.6394    5.8903 C.3       12 UNK         0.0203 
     72 H72        33.6093   27.2189   -2.7494 H         1 UNK         0.0888 
     73 H73        32.9909   28.8244   -3.1455 H         1 UNK         0.0888 
     74 H74        34.0330   28.6018   -1.7373 H         1 UNK         0.0888 
     75 H75        32.1731   25.9031   -1.6291 H         1 UNK         0.3017 
     76 H76        30.6363   26.7692    0.5843 H         1 UNK         0.0873 
     77 H77        30.2518   24.1365   -0.9284 H         1 UNK         0.0745 
     78 H78        29.8513   24.4847    0.7402 H         1 UNK         0.0745 
     79 H79        31.0438   22.0745    0.8683 H         1 UNK         0.0705 
     80 H80        32.7080   21.9883    1.3882 H         1 UNK         0.0705 
     81 H81        33.2538   23.9922    3.2576 H         1 UNK         0.1334 
     82 H82        30.5452   23.5419    6.5488 H         1 UNK         0.1417 
     83 H83        29.5523   21.9017    2.7125 H         1 UNK         0.1562 
     84 H84        28.8038   21.4179    6.0190 H         1 UNK         0.0748 
     85 H85        27.9831   21.6671    4.4976 H         1 UNK         0.0748 
     86 H86        25.9061   24.8564    5.0516 H         1 UNK         0.0940 
     87 H87        26.0608   23.3547    4.2046 H         1 UNK         0.0940 
     88 H88        28.0829   24.1073    3.0357 H         1 UNK         0.0703 
     89 H89        26.8143   24.9665    1.4843 H         1 UNK         0.3081 
     90 H90        23.8289   26.3048    1.3298 H         1 UNK         0.0719 
     91 H91        24.4656   28.6769    1.7416 H         1 UNK         0.0809 
     92 H92        25.9134   28.4797    0.7621 H         1 UNK         0.0809 
     93 H93        24.3214   28.3727    0.0179 H         1 UNK         0.0809 
     94 H94        26.3683   26.2101   -0.2515 H         1 UNK         0.2990 
     95 H95        26.0414   23.5336   -1.6393 H         1 UNK         0.0690 
     96 H96        25.1931   23.7178   -3.9988 H         1 UNK         0.0788 
     97 H97        24.0585   24.9657   -3.4843 H         1 UNK         0.0788 
     98 H98        23.9178   23.3321   -2.8569 H         1 UNK         0.0788 
     99 H99        27.5969   24.9634   -2.2769 H         1 UNK         0.2993 
    100 H100       28.1643   27.3166   -4.0521 H         1 UNK         0.0949 
    101 H101       27.3751   29.0227   -1.6293 H         1 UNK         0.0767 
    102 H102       28.6490   29.4332   -2.7750 H         1 UNK         0.0767 
    103 H103       26.9793   29.3530   -3.3106 H         1 UNK         0.0767 
    104 H104       29.8822   26.7072   -2.7801 H         1 UNK         0.3013 
    105 H105       27.3379   26.3760    5.5780 H         1 UNK         0.3121 
    106 H106       30.0080   27.5071    5.4637 H         1 UNK         0.0774 
    107 H107       29.3218   28.6092    7.5752 H         1 UNK         0.0815 
    108 H108       27.6616   28.0706    7.3490 H         1 UNK         0.0815 
    109 H109       28.9510   26.8952    7.6204 H         1 UNK         0.0815 
    110 H110       29.2867   28.2170    3.1565 H         1 UNK         0.2987 
    111 H111       28.1436   30.8983    2.9315 H         1 UNK         0.0949 
    112 H112       28.0804   29.2790    1.0277 H         1 UNK         0.0806 
    113 H113       29.0309   30.6827    0.5719 H         1 UNK         0.0806 
    114 H114       29.8347   29.1853    1.0246 H         1 UNK         0.0806 
    115 H115       29.3951   32.7732    2.2880 H         1 UNK         0.3010 
    116 H116       31.5028   33.3677    4.0172 H         1 UNK         0.0829 
    117 H117       30.6068   34.8329    1.4753 H         1 UNK         0.0813 
    118 H118       31.6077   35.5235    2.7447 H         1 UNK         0.0813 
    119 H119       29.9512   35.0658    3.0973 H         1 UNK         0.0813 
    120 H120       31.7368   32.0293    0.7817 H         1 UNK         0.3038 
    121 H121       34.6351   32.5444    0.5621 H         1 UNK         0.0769 
    122 H122       33.2921   32.7470   -1.4780 H         1 UNK         0.0811 
    123 H123       34.3625   31.3657   -1.6340 H         1 UNK         0.0811 
    124 H124       32.6581   31.1173   -1.2849 H         1 UNK         0.0811 
    125 H125       32.8007   30.3431    2.3064 H         1 UNK         0.3204 
    126 H126       34.9705   28.2966    2.3016 H         1 UNK         0.0748 
    127 H127       33.2156   26.6265    2.8908 H         1 UNK         0.0771 
    128 H128       31.9576   27.8572    2.7431 H         1 UNK         0.0771 
    129 H129       32.8800   27.3436    1.3366 H         1 UNK         0.0771 
    130 H130       33.0573   27.4527    4.7193 H         1 UNK         0.2980 
    131 H131       34.6476   28.8181    6.7391 H         1 UNK         0.0545 
    132 H132       31.2164   30.7924    6.6790 H         1 UNK         0.3459 
    133 H133       31.8668   30.0110    5.2639 H         1 UNK         0.3459 
    134 H134       33.5621   27.1731    8.3187 H         1 UNK         0.0616 
    135 H135       34.5042   26.4745    7.0447 H         1 UNK         0.0616 
    136 H136       33.7937   25.0232    5.2976 H         1 UNK         0.0634 
    137 H137       33.3898   23.9642    6.6322 H         1 UNK         0.0634 
@<TRIPOS>BOND
     1    1    2 1    
     2    1   72 1    
     3    1   73 1    
     4    1   74 1    
     5    2    3 2    
     6    2    4 am   BACKBONE|DICT|INTERRES
     7    4    5 1    
     8    4   75 1    
     9    5    6 1    
    10    5   35 1    
    11    5   76 1    
    12    6    7 1    
    13    6   77 1    
    14    6   78 1    
    15    7    8 1    
    16    8    9 1    
    17    8   79 1    
    18    8   80 1    
    19    9   10 ar   
    20    9   14 ar   
    21   10   11 ar   
    22   10   81 1    
    23   11   12 ar   
    24   11   71 1    
    25   12   13 ar   
    26   12   82 1    
    27   13   14 ar   
    28   13   15 1    
    29   14   83 1    
    30   15   16 1    
    31   15   84 1    
    32   15   85 1    
    33   16   17 1    
    34   17   18 1    
    35   17   86 1    
    36   17   87 1    
    37   18   19 1    
    38   18   37 1    
    39   18   88 1    
    40   19   20 am   BACKBONE|DICT|INTERRES
    41   19   89 1    
    42   20   21 2    
    43   20   22 1    
    44   22   23 1    
    45   22   24 1    
    46   22   90 1    
    47   23   91 1    
    48   23   92 1    
    49   23   93 1    
    50   24   25 am   BACKBONE|DICT|INTERRES
    51   24   94 1    
    52   25   26 2    
    53   25   27 1    
    54   27   28 1    
    55   27   29 1    
    56   27   95 1    
    57   28   96 1    
    58   28   97 1    
    59   28   98 1    
    60   29   30 am   BACKBONE|DICT|INTERRES
    61   29   99 1    
    62   30   31 2    
    63   30   32 1    
    64   32   33 1    
    65   32   34 1    
    66   32  100 1    
    67   33  101 1    
    68   33  102 1    
    69   33  103 1    
    70   34   35 am   BACKBONE|DICT|INTERRES
    71   34  104 1    
    72   35   36 2    
    73   37   38 2    
    74   37   39 am   BACKBONE|DICT|INTERRES
    75   39   40 1    
    76   39  105 1    
    77   40   41 1    
    78   40   42 1    
    79   40  106 1    
    80   41  107 1    
    81   41  108 1    
    82   41  109 1    
    83   42   43 2    
    84   42   44 am   BACKBONE|DICT|INTERRES
    85   44   45 1    
    86   44  110 1    
    87   45   46 1    
    88   45   47 1    
    89   45  111 1    
    90   46  112 1    
    91   46  113 1    
    92   46  114 1    
    93   47   48 2    
    94   47   49 am   BACKBONE|DICT|INTERRES
    95   49   50 1    
    96   49  115 1    
    97   50   51 1    
    98   50   52 1    
    99   50  116 1    
   100   51  117 1    
   101   51  118 1    
   102   51  119 1    
   103   52   53 2    
   104   52   54 am   BACKBONE|DICT|INTERRES
   105   54   55 1    
   106   54  120 1    
   107   55   56 1    
   108   55   57 1    
   109   55  121 1    
   110   56  122 1    
   111   56  123 1    
   112   56  124 1    
   113   57   58 2    
   114   57   59 am   BACKBONE|DICT|INTERRES
   115   59   60 1    
   116   59  125 1    
   117   60   61 1    
   118   60   62 1    
   119   60  126 1    
   120   61  127 1    
   121   61  128 1    
   122   61  129 1    
   123   62   63 2    
   124   62   64 am   BACKBONE|DICT|INTERRES
   125   64   65 1    
   126   64  130 1    
   127   65   66 1    
   128   65   69 1    
   129   65  131 1    
   130   66   67 am   BACKBONE|DICT|INTERRES
   131   66   68 2    
   132   67  132 1    
   133   67  133 1    
   134   69   70 1    
   135   69  134 1    
   136   69  135 1    
   137   70   71 1    
   138   71  136 1    
   139   71  137 1    
@<TRIPOS>SUBSTRUCTURE
     1 UNK         1 GROUP             0       ****    0 ROOT    
