@<TRIPOS>MOLECULE
3R136
137   139    1
SMALL
USER_CHARGES


@<TRIPOS>ATOM
      1 CA         32.6313   22.0208   -3.4099 C.3       0 UNK        -0.1979 
      2 C          31.4401   21.7030   -2.5185 C.2       0 UNK         0.4864 
      3 O          30.6941   20.7688   -2.8117 O.2       0 UNK        -0.5359 
      4 N          31.2487   22.4897   -1.4488 N.am      1 UNK        -0.4318 
      5 CA         30.2188   22.3507   -0.4015 C.3       1 UNK         0.0824 
      6 C6         30.2791   20.9918    0.3567 C.3       12 UNK        -0.0944 
      7 S7         31.9063   20.6652    1.1212 S.3       12 UNK        -0.2672 
      8 C8         31.5821   21.0242    2.8781 C.3       12 UNK         0.0333 
      9 C9         31.4005   22.5149    3.1191 C.ar      12 UNK        -0.0807 
     10 C10        32.5169   23.3417    3.2737 C.ar      12 UNK        -0.0894 
     11 C11        32.3601   24.7170    3.4684 C.ar      12 UNK        -0.0804 
     12 C12        31.0739   25.2633    3.5126 C.ar      12 UNK        -0.0824 
     13 C13        29.9521   24.4503    3.3297 C.ar      12 UNK        -0.0762 
     14 C14        30.1199   23.0738    3.1578 C.ar      12 UNK        -0.0782 
     15 C15        28.5644   25.0603    3.2252 C.3       12 UNK         0.0230 
     16 S16        27.7324   25.2098    4.8397 S.3       12 UNK        -0.2608 
     17 C17        28.0858   26.8986    5.4615 C.3       12 UNK        -0.0989 
     18 CA         28.2390   28.0390    4.4191 C.3       5 UNK         0.0716 
     19 N          27.1710   28.0538    3.4167 N.am      5 UNK        -0.4135 
     20 C          27.2190   28.7581    2.2790 C.2       4 UNK         0.5031 
     21 O          28.1432   29.5186    1.9764 O.2       4 UNK        -0.5229 
     22 CA         26.0346   28.5910    1.3131 C.3       4 UNK         0.0329 
     23 CB         25.1778   29.8662    1.2910 C.3       4 UNK        -0.2001 
     24 N          26.4686   28.2816   -0.0529 N.am      4 UNK        -0.4303 
     25 C          27.1526   27.1875   -0.4151 C.2       3 UNK         0.5044 
     26 O          27.5162   26.3113    0.3712 O.2       3 UNK        -0.5152 
     27 CA         27.4906   27.0593   -1.9112 C.3       3 UNK         0.0319 
     28 CB         28.7225   27.9029   -2.2762 C.3       3 UNK        -0.2001 
     29 N          27.7482   25.6664   -2.2824 N.am      3 UNK        -0.4354 
     30 C          26.8006   24.7344   -2.4533 C.2       2 UNK         0.4964 
     31 O          25.5921   24.9679   -2.4016 O.2       2 UNK        -0.5047 
     32 CA         27.2757   23.3017   -2.7507 C.3       2 UNK         0.0288 
     33 CB         27.3471   23.0642   -4.2684 C.3       2 UNK        -0.2113 
     34 N          28.5780   22.9875   -2.1555 N.am      2 UNK        -0.4145 
     35 C          28.7757   22.6712   -0.8669 C.2       1 UNK         0.5006 
     36 O          27.8624   22.6332   -0.0403 O.2       1 UNK        -0.5103 
     37 C          28.3192   29.4070    5.1218 C.2       5 UNK         0.5055 
     38 O          27.2819   29.9538    5.5044 O.2       5 UNK        -0.5220 
     39 N          29.5400   29.9396    5.2513 N.am      6 UNK        -0.4450 
     40 CA         29.9288   31.2420    5.8095 C.3       6 UNK         0.0367 
     41 CB         29.4468   31.4181    7.2627 C.3       6 UNK        -0.1929 
     42 C          29.5258   32.4414    4.9340 C.2       6 UNK         0.5070 
     43 O          30.3221   33.3682    4.7876 O.2       6 UNK        -0.5237 
     44 N          28.3178   32.4043    4.3591 N.am      7 UNK        -0.4739 
     45 CA         27.7752   33.4272    3.4638 C.3       7 UNK         0.0276 
     46 CB         26.2704   33.1843    3.2728 C.3       7 UNK        -0.1927 
     47 C          28.4922   33.4923    2.1041 C.2       7 UNK         0.5013 
     48 O          28.6215   34.5857    1.5516 O.2       7 UNK        -0.5193 
     49 N          28.9426   32.3381    1.5957 N.am      8 UNK        -0.4253 
     50 CA         29.6850   32.2131    0.3422 C.3       8 UNK         0.0242 
     51 CB         28.7592   31.6710   -0.7606 C.3       8 UNK        -0.2000 
     52 C          30.9196   31.3254    0.5360 C.2       8 UNK         0.4948 
     53 O          32.0345   31.7719    0.2626 O.2       8 UNK        -0.5275 
     54 N          30.7106   30.0936    1.0171 N.am      9 UNK        -0.4246 
     55 CA         31.7679   29.1345    1.3266 C.3       9 UNK         0.0261 
     56 CB         31.2256   27.7128    1.1165 C.3       9 UNK        -0.1959 
     57 C          32.2394   29.3735    2.7667 C.2       9 UNK         0.5033 
     58 O          31.5674   28.9421    3.7066 O.2       9 UNK        -0.5390 
     59 N          33.3519   30.1021    2.9155 N.am      10 UNK        -0.4215 
     60 CA         33.8752   30.6819    4.1600 C.3       10 UNK         0.0240 
     61 CB         34.9211   31.7521    3.7916 C.3       10 UNK        -0.1982 
     62 C          34.4007   29.6849    5.2218 C.2       10 UNK         0.4970 
     63 O          35.4701   29.9101    5.7914 O.2       10 UNK        -0.4916 
     64 N          33.6316   28.6296    5.5060 N.am      11 UNK        -0.4279 
     65 CA         33.8358   27.7086    6.6385 C.3       11 UNK         0.1003 
     66 C          33.2285   28.2214    7.9783 C.2       11 UNK         0.5709 
     67 N          32.5108   29.3384    8.0072 N.am      11 UNK        -0.7358 
     68 O          33.4284   27.6013    9.0202 O.2       11 UNK        -0.4999 
     69 C69        33.3419   26.2759    6.3050 C.3       12 UNK        -0.0954 
     70 S70        34.4606   25.4267    5.1443 S.3       12 UNK        -0.2268 
     71 C71        33.5836   25.6165    3.5660 C.3       12 UNK         0.0203 
     72 H72        32.2955   22.2389   -4.4234 H         1 UNK         0.0888 
     73 H73        33.1961   22.8795   -3.0473 H         1 UNK         0.0888 
     74 H74        33.3055   21.1657   -3.4509 H         1 UNK         0.0888 
     75 H75        31.9026   23.2436   -1.2884 H         1 UNK         0.3017 
     76 H76        30.4506   23.1337    0.3217 H         1 UNK         0.0873 
     77 H77        29.5149   20.9443    1.1338 H         1 UNK         0.0745 
     78 H78        30.0528   20.1662   -0.3194 H         1 UNK         0.0745 
     79 H79        32.4213   20.6586    3.4719 H         1 UNK         0.0705 
     80 H80        30.7071   20.4662    3.2151 H         1 UNK         0.0705 
     81 H81        33.5107   22.9172    3.2260 H         1 UNK         0.1334 
     82 H82        30.9490   26.3272    3.6505 H         1 UNK         0.1417 
     83 H83        29.2523   22.4440    3.0148 H         1 UNK         0.1562 
     84 H84        27.9424   24.4333    2.5837 H         1 UNK         0.0748 
     85 H85        28.6276   26.0117    2.7055 H         1 UNK         0.0748 
     86 H86        28.9922   26.8372    6.0673 H         1 UNK         0.0940 
     87 H87        27.2833   27.1395    6.1623 H         1 UNK         0.0940 
     88 H88        29.1773   27.8828    3.8868 H         1 UNK         0.0703 
     89 H89        26.3686   27.4742    3.6127 H         1 UNK         0.3081 
     90 H90        25.4119   27.7623    1.6566 H         1 UNK         0.0719 
     91 H91        25.7402   30.7221    0.9148 H         1 UNK         0.0809 
     92 H92        24.2958   29.7420    0.6624 H         1 UNK         0.0809 
     93 H93        24.8260   30.1177    2.2925 H         1 UNK         0.0809 
     94 H94        26.2329   28.9606   -0.7613 H         1 UNK         0.2990 
     95 H95        26.6378   27.4225   -2.4890 H         1 UNK         0.0690 
     96 H96        28.9297   27.8559   -3.3455 H         1 UNK         0.0788 
     97 H97        29.6141   27.5648   -1.7501 H         1 UNK         0.0788 
     98 H98        28.5720   28.9525   -2.0262 H         1 UNK         0.0788 
     99 H99        28.7134   25.3753   -2.3034 H         1 UNK         0.2993 
    100 H100       26.5316   22.6184   -2.3348 H         1 UNK         0.0949 
    101 H101       28.0807   23.7147   -4.7465 H         1 UNK         0.0767 
    102 H102       27.6145   22.0318   -4.4955 H         1 UNK         0.0767 
    103 H103       26.3824   23.2589   -4.7394 H         1 UNK         0.0767 
    104 H104       29.3725   22.9540   -2.7773 H         1 UNK         0.3013 
    105 H105       30.3025   29.4482    4.7809 H         1 UNK         0.3121 
    106 H106       31.0183   31.2311    5.8322 H         1 UNK         0.0774 
    107 H107       29.8722   32.3204    7.7037 H         1 UNK         0.0815 
    108 H108       28.3624   31.5110    7.3272 H         1 UNK         0.0815 
    109 H109       29.7482   30.5775    7.8871 H         1 UNK         0.0815 
    110 H110       27.7253   31.6083    4.5780 H         1 UNK         0.2987 
    111 H111       27.9054   34.3984    3.9466 H         1 UNK         0.0949 
    112 H112       25.8343   33.9286    2.6049 H         1 UNK         0.0806 
    113 H113       26.0748   32.2029    2.8424 H         1 UNK         0.0806 
    114 H114       25.7353   33.2468    4.2205 H         1 UNK         0.0806 
    115 H115       28.7661   31.4772    2.1024 H         1 UNK         0.3010 
    116 H116       30.0517   33.1913    0.0234 H         1 UNK         0.0829 
    117 H117       27.9628   32.3801   -0.9862 H         1 UNK         0.0813 
    118 H118       29.3099   31.4953   -1.6857 H         1 UNK         0.0813 
    119 H119       28.2910   30.7312   -0.4689 H         1 UNK         0.0813 
    120 H120       29.7632   29.8186    1.2746 H         1 UNK         0.3038 
    121 H121       32.6110   29.2720    0.6460 H         1 UNK         0.0769 
    122 H122       31.9686   26.9649    1.3910 H         1 UNK         0.0811 
    123 H123       30.9791   27.5406    0.0709 H         1 UNK         0.0811 
    124 H124       30.3243   27.5287    1.7008 H         1 UNK         0.0811 
    125 H125       33.8224   30.3996    2.0720 H         1 UNK         0.3204 
    126 H126       33.0447   31.2068    4.6340 H         1 UNK         0.0748 
    127 H127       35.2693   32.2872    4.6764 H         1 UNK         0.0771 
    128 H128       35.7952   31.3112    3.3106 H         1 UNK         0.0771 
    129 H129       34.5049   32.4987    3.1146 H         1 UNK         0.0771 
    130 H130       32.7695   28.5244    4.9769 H         1 UNK         0.2980 
    131 H131       34.9080   27.6430    6.8330 H         1 UNK         0.0545 
    132 H132       32.3525   29.8669    7.1678 H         1 UNK         0.3459 
    133 H133       32.1382   29.6568    8.8874 H         1 UNK         0.3459 
    134 H134       32.3231   26.2950    5.9157 H         1 UNK         0.0616 
    135 H135       33.3079   25.6535    7.2010 H         1 UNK         0.0616 
    136 H136       34.2703   25.3724    2.7544 H         1 UNK         0.0634 
    137 H137       33.3145   26.6634    3.4300 H         1 UNK         0.0634 
@<TRIPOS>BOND
     1    1    2 1    
     2    1   72 1    
     3    1   73 1    
     4    1   74 1    
     5    2    3 2    
     6    2    4 am   BACKBONE|DICT|INTERRES
     7    4    5 1    
     8    4   75 1    
     9    5    6 1    
    10    5   35 1    
    11    5   76 1    
    12    6    7 1    
    13    6   77 1    
    14    6   78 1    
    15    7    8 1    
    16    8    9 1    
    17    8   79 1    
    18    8   80 1    
    19    9   10 ar   
    20    9   14 ar   
    21   10   11 ar   
    22   10   81 1    
    23   11   12 ar   
    24   11   71 1    
    25   12   13 ar   
    26   12   82 1    
    27   13   14 ar   
    28   13   15 1    
    29   14   83 1    
    30   15   16 1    
    31   15   84 1    
    32   15   85 1    
    33   16   17 1    
    34   17   18 1    
    35   17   86 1    
    36   17   87 1    
    37   18   19 1    
    38   18   37 1    
    39   18   88 1    
    40   19   20 am   BACKBONE|DICT|INTERRES
    41   19   89 1    
    42   20   21 2    
    43   20   22 1    
    44   22   23 1    
    45   22   24 1    
    46   22   90 1    
    47   23   91 1    
    48   23   92 1    
    49   23   93 1    
    50   24   25 am   BACKBONE|DICT|INTERRES
    51   24   94 1    
    52   25   26 2    
    53   25   27 1    
    54   27   28 1    
    55   27   29 1    
    56   27   95 1    
    57   28   96 1    
    58   28   97 1    
    59   28   98 1    
    60   29   30 am   BACKBONE|DICT|INTERRES
    61   29   99 1    
    62   30   31 2    
    63   30   32 1    
    64   32   33 1    
    65   32   34 1    
    66   32  100 1    
    67   33  101 1    
    68   33  102 1    
    69   33  103 1    
    70   34   35 am   BACKBONE|DICT|INTERRES
    71   34  104 1    
    72   35   36 2    
    73   37   38 2    
    74   37   39 am   BACKBONE|DICT|INTERRES
    75   39   40 1    
    76   39  105 1    
    77   40   41 1    
    78   40   42 1    
    79   40  106 1    
    80   41  107 1    
    81   41  108 1    
    82   41  109 1    
    83   42   43 2    
    84   42   44 am   BACKBONE|DICT|INTERRES
    85   44   45 1    
    86   44  110 1    
    87   45   46 1    
    88   45   47 1    
    89   45  111 1    
    90   46  112 1    
    91   46  113 1    
    92   46  114 1    
    93   47   48 2    
    94   47   49 am   BACKBONE|DICT|INTERRES
    95   49   50 1    
    96   49  115 1    
    97   50   51 1    
    98   50   52 1    
    99   50  116 1    
   100   51  117 1    
   101   51  118 1    
   102   51  119 1    
   103   52   53 2    
   104   52   54 am   BACKBONE|DICT|INTERRES
   105   54   55 1    
   106   54  120 1    
   107   55   56 1    
   108   55   57 1    
   109   55  121 1    
   110   56  122 1    
   111   56  123 1    
   112   56  124 1    
   113   57   58 2    
   114   57   59 am   BACKBONE|DICT|INTERRES
   115   59   60 1    
   116   59  125 1    
   117   60   61 1    
   118   60   62 1    
   119   60  126 1    
   120   61  127 1    
   121   61  128 1    
   122   61  129 1    
   123   62   63 2    
   124   62   64 am   BACKBONE|DICT|INTERRES
   125   64   65 1    
   126   64  130 1    
   127   65   66 1    
   128   65   69 1    
   129   65  131 1    
   130   66   67 am   BACKBONE|DICT|INTERRES
   131   66   68 2    
   132   67  132 1    
   133   67  133 1    
   134   69   70 1    
   135   69  134 1    
   136   69  135 1    
   137   70   71 1    
   138   71  136 1    
   139   71  137 1    
@<TRIPOS>SUBSTRUCTURE
     1 UNK         1 GROUP             0       ****    0 ROOT    
