@<TRIPOS>MOLECULE
3R136
137   139    1
SMALL
USER_CHARGES


@<TRIPOS>ATOM
      1 CA         22.8967   25.5048    1.1240 C.3       0 UNK        -0.1979 
      2 C          23.8996   24.5399    1.7378 C.2       0 UNK         0.4864 
      3 O          23.5200   23.4480    2.1662 O.2       0 UNK        -0.5359 
      4 N          25.1809   24.9256    1.7795 N.am      1 UNK        -0.4318 
      5 CA         26.2992   24.1259    2.2866 C.3       1 UNK         0.0824 
      6 C6         27.4774   25.0368    2.7249 C.3       12 UNK        -0.0944 
      7 S7         28.5324   24.2912    4.0136 S.3       12 UNK        -0.2672 
      8 C8         29.9303   23.6036    3.0680 C.3       12 UNK         0.0333 
      9 C9         30.8529   24.6770    2.5062 C.ar      12 UNK        -0.0807 
     10 C10        31.9073   25.1700    3.2806 C.ar      12 UNK        -0.0894 
     11 C11        32.8062   26.0990    2.7477 C.ar      12 UNK        -0.0804 
     12 C12        32.6172   26.5700    1.4446 C.ar      12 UNK        -0.0824 
     13 C13        31.5630   26.0884    0.6603 C.ar      12 UNK        -0.0762 
     14 C14        30.6940   25.1311    1.1930 C.ar      12 UNK        -0.0782 
     15 C15        31.4004   26.5647   -0.7772 C.3       12 UNK         0.0230 
     16 S16        30.1996   27.9260   -0.9180 S.3       12 UNK        -0.2608 
     17 C17        28.6693   27.0171   -1.3179 C.3       12 UNK        -0.0989 
     18 CA         27.3992   27.9002   -1.1968 C.3       5 UNK         0.0716 
     19 N          26.2969   27.3581   -1.9809 N.am      5 UNK        -0.4135 
     20 C          26.0782   27.5270   -3.2862 C.2       4 UNK         0.5031 
     21 O          26.7994   28.2051   -4.0205 O.2       4 UNK        -0.5229 
     22 CA         24.8692   26.7634   -3.8677 C.3       4 UNK         0.0329 
     23 CB         24.5147   27.2160   -5.2965 C.3       4 UNK        -0.2001 
     24 N          25.1180   25.3182   -3.8730 N.am      4 UNK        -0.4303 
     25 C          25.1156   24.5361   -2.7858 C.2       3 UNK         0.5044 
     26 O          24.7747   24.9320   -1.6654 O.2       3 UNK        -0.5152 
     27 CA         25.6211   23.0962   -2.9653 C.3       3 UNK         0.0319 
     28 CB         27.0494   23.0831   -3.5571 C.3       3 UNK        -0.2001 
     29 N          25.6124   22.4779   -1.6444 N.am      3 UNK        -0.4354 
     30 C          25.9023   21.2173   -1.3101 C.2       2 UNK         0.4964 
     31 O          26.1256   20.3302   -2.1356 O.2       2 UNK        -0.5047 
     32 CA         25.9374   20.8750    0.1969 C.3       2 UNK         0.0288 
     33 CB         27.1643   20.0104    0.5581 C.3       2 UNK        -0.2113 
     34 N          25.8395   22.0309    1.1052 N.am      2 UNK        -0.4145 
     35 C          26.6921   23.0598    1.2407 C.2       1 UNK         0.5006 
     36 O          27.6995   23.2111    0.5478 O.2       1 UNK        -0.5103 
     37 C          26.9107   28.0174    0.2564 C.2       5 UNK         0.5055 
     38 O          25.9365   27.3574    0.6307 O.2       5 UNK        -0.5220 
     39 N          27.6018   28.8317    1.0548 N.am      6 UNK        -0.4450 
     40 CA         27.3688   29.0043    2.4831 C.3       6 UNK         0.0367 
     41 CB         26.5569   30.2875    2.7262 C.3       6 UNK        -0.1929 
     42 C          28.7336   29.0783    3.1701 C.2       6 UNK         0.5070 
     43 O          29.6566   29.6768    2.6113 O.2       6 UNK        -0.5237 
     44 N          28.8330   28.4955    4.3699 N.am      7 UNK        -0.4739 
     45 CA         30.0213   28.5902    5.2173 C.3       7 UNK         0.0276 
     46 CB         29.9831   27.4833    6.2823 C.3       7 UNK        -0.1927 
     47 C          30.1077   29.9819    5.8656 C.2       7 UNK         0.5013 
     48 O          29.0782   30.5357    6.2615 O.2       7 UNK        -0.5193 
     49 N          31.3268   30.5148    5.9698 N.am      8 UNK        -0.4253 
     50 CA         31.6397   31.8456    6.4857 C.3       8 UNK         0.0242 
     51 CB         31.2637   32.9145    5.4364 C.3       8 UNK        -0.2000 
     52 C          33.1353   31.8921    6.8226 C.2       8 UNK         0.4948 
     53 O          33.8372   30.9001    6.6131 O.2       8 UNK        -0.5275 
     54 N          33.6199   33.0541    7.2854 N.am      9 UNK        -0.4246 
     55 CA         35.0335   33.3192    7.5989 C.3       9 UNK         0.0261 
     56 CB         35.1784   34.7579    8.1204 C.3       9 UNK        -0.1959 
     57 C          36.0074   33.0712    6.4281 C.2       9 UNK         0.5033 
     58 O          37.1718   32.7484    6.6684 O.2       9 UNK        -0.5390 
     59 N          35.5018   33.1650    5.1891 N.am      10 UNK        -0.4215 
     60 CA         36.1876   32.7954    3.9475 C.3       10 UNK         0.0240 
     61 CB         35.2807   33.1412    2.7549 C.3       10 UNK        -0.1982 
     62 C          36.6254   31.3175    3.8768 C.2       10 UNK         0.4970 
     63 O          37.5511   31.0127    3.1235 O.2       10 UNK        -0.4916 
     64 N          35.9857   30.4357    4.6595 N.am      11 UNK        -0.4279 
     65 CA         36.4054   29.0395    4.8523 C.3       11 UNK         0.1003 
     66 C          37.7088   28.8785    5.6919 C.2       11 UNK         0.5709 
     67 N          38.2104   29.9067    6.3692 N.am      11 UNK        -0.7358 
     68 O          38.2848   27.7935    5.7211 O.2       11 UNK        -0.4999 
     69 C69        35.2658   28.1672    5.4430 C.3       12 UNK        -0.0954 
     70 S70        33.7685   28.1194    4.3993 S.3       12 UNK        -0.2268 
     71 C71        34.0219   26.5317    3.5541 C.3       12 UNK         0.0203 
     72 H72        23.3646   26.4452    0.8333 H         1 UNK         0.0888 
     73 H73        22.1012   25.7257    1.8347 H         1 UNK         0.0888 
     74 H74        22.4508   25.0620    0.2339 H         1 UNK         0.0888 
     75 H75        25.4354   25.8240    1.3674 H         1 UNK         0.3017 
     76 H76        25.9462   23.5961    3.1745 H         1 UNK         0.0873 
     77 H77        27.0720   25.9354    3.1876 H         1 UNK         0.0745 
     78 H78        28.0636   25.3957    1.8799 H         1 UNK         0.0745 
     79 H79        30.5007   22.9522    3.7318 H         1 UNK         0.0705 
     80 H80        29.5644   22.9563    2.2721 H         1 UNK         0.0705 
     81 H81        32.0485   24.8021    4.2879 H         1 UNK         0.1334 
     82 H82        33.3096   27.2914    1.0322 H         1 UNK         0.1417 
     83 H83        29.8999   24.7258    0.5816 H         1 UNK         0.1562 
     84 H84        31.1050   25.7343   -1.4205 H         1 UNK         0.0748 
     85 H85        32.3605   26.9120   -1.1622 H         1 UNK         0.0748 
     86 H86        28.5835   26.1199   -0.7026 H         1 UNK         0.0940 
     87 H87        28.7796   26.6607   -2.3435 H         1 UNK         0.0940 
     88 H88        27.6089   28.9074   -1.5641 H         1 UNK         0.0703 
     89 H89        25.6558   26.7739   -1.4499 H         1 UNK         0.3081 
     90 H90        24.0078   26.9718   -3.2291 H         1 UNK         0.0719 
     91 H91        25.3251   27.0165   -5.9990 H         1 UNK         0.0809 
     92 H92        23.6213   26.7098   -5.6625 H         1 UNK         0.0809 
     93 H93        24.3135   28.2877   -5.3269 H         1 UNK         0.0809 
     94 H94        25.4270   24.9231   -4.7495 H         1 UNK         0.2990 
     95 H95        24.9323   22.5579   -3.6187 H         1 UNK         0.0690 
     96 H96        27.4309   22.0689   -3.6726 H         1 UNK         0.0788 
     97 H97        27.7490   23.6289   -2.9219 H         1 UNK         0.0788 
     98 H98        27.0806   23.5388   -4.5470 H         1 UNK         0.0788 
     99 H99        25.3996   23.1416   -0.9087 H         1 UNK         0.2993 
    100 H100       25.0453   20.2746    0.3816 H         1 UNK         0.0949 
    101 H101       28.1003   20.5273    0.3431 H         1 UNK         0.0767 
    102 H102       27.1638   19.7424    1.6146 H         1 UNK         0.0767 
    103 H103       27.1708   19.0792   -0.0098 H         1 UNK         0.0767 
    104 H104       24.9840   22.0847    1.6508 H         1 UNK         0.3013 
    105 H105       28.4529   29.2639    0.7134 H         1 UNK         0.3121 
    106 H106       26.8138   28.1562    2.8857 H         1 UNK         0.0774 
    107 H107       25.5806   30.2348    2.2441 H         1 UNK         0.0815 
    108 H108       27.0731   31.1693    2.3445 H         1 UNK         0.0815 
    109 H109       26.3862   30.4445    3.7921 H         1 UNK         0.0815 
    110 H110       28.0185   28.0640    4.7816 H         1 UNK         0.2987 
    111 H111       30.8994   28.4332    4.5881 H         1 UNK         0.0949 
    112 H112       29.1180   27.5820    6.9391 H         1 UNK         0.0806 
    113 H113       29.9481   26.4950    5.8230 H         1 UNK         0.0806 
    114 H114       30.8758   27.5161    6.9084 H         1 UNK         0.0806 
    115 H115       32.1451   29.9784    5.7016 H         1 UNK         0.3010 
    116 H116       31.0792   32.0138    7.4076 H         1 UNK         0.0829 
    117 H117       30.2041   32.8703    5.1839 H         1 UNK         0.0813 
    118 H118       31.4555   33.9239    5.8011 H         1 UNK         0.0813 
    119 H119       31.8278   32.7848    4.5118 H         1 UNK         0.0813 
    120 H120       32.9777   33.8197    7.4343 H         1 UNK         0.3038 
    121 H121       35.3197   32.6346    8.4001 H         1 UNK         0.0769 
    122 H122       34.8729   35.4917    7.3733 H         1 UNK         0.0811 
    123 H123       36.2146   34.9747    8.3847 H         1 UNK         0.0811 
    124 H124       34.5787   34.9190    9.0164 H         1 UNK         0.0811 
    125 H125       34.5363   33.4446    5.1015 H         1 UNK         0.3204 
    126 H126       37.0924   33.4030    3.8808 H         1 UNK         0.0748 
    127 H127       35.0345   34.2031    2.7362 H         1 UNK         0.0771 
    128 H128       35.7730   32.9090    1.8093 H         1 UNK         0.0771 
    129 H129       34.3465   32.5783    2.7822 H         1 UNK         0.0771 
    130 H130       35.2318   30.7478    5.2640 H         1 UNK         0.2980 
    131 H131       36.6402   28.6349    3.8660 H         1 UNK         0.0545 
    132 H132       37.7593   30.8146    6.3617 H         1 UNK         0.3459 
    133 H133       39.0567   29.7757    6.8996 H         1 UNK         0.3459 
    134 H134       35.6110   27.1449    5.6067 H         1 UNK         0.0616 
    135 H135       34.9794   28.5378    6.4283 H         1 UNK         0.0616 
    136 H136       34.2631   25.7641    4.2911 H         1 UNK         0.0634 
    137 H137       34.8916   26.6116    2.9002 H         1 UNK         0.0634 
@<TRIPOS>BOND
     1    1    2 1    
     2    1   72 1    
     3    1   73 1    
     4    1   74 1    
     5    2    3 2    
     6    2    4 am   BACKBONE|DICT|INTERRES
     7    4    5 1    
     8    4   75 1    
     9    5    6 1    
    10    5   35 1    
    11    5   76 1    
    12    6    7 1    
    13    6   77 1    
    14    6   78 1    
    15    7    8 1    
    16    8    9 1    
    17    8   79 1    
    18    8   80 1    
    19    9   10 ar   
    20    9   14 ar   
    21   10   11 ar   
    22   10   81 1    
    23   11   12 ar   
    24   11   71 1    
    25   12   13 ar   
    26   12   82 1    
    27   13   14 ar   
    28   13   15 1    
    29   14   83 1    
    30   15   16 1    
    31   15   84 1    
    32   15   85 1    
    33   16   17 1    
    34   17   18 1    
    35   17   86 1    
    36   17   87 1    
    37   18   19 1    
    38   18   37 1    
    39   18   88 1    
    40   19   20 am   BACKBONE|DICT|INTERRES
    41   19   89 1    
    42   20   21 2    
    43   20   22 1    
    44   22   23 1    
    45   22   24 1    
    46   22   90 1    
    47   23   91 1    
    48   23   92 1    
    49   23   93 1    
    50   24   25 am   BACKBONE|DICT|INTERRES
    51   24   94 1    
    52   25   26 2    
    53   25   27 1    
    54   27   28 1    
    55   27   29 1    
    56   27   95 1    
    57   28   96 1    
    58   28   97 1    
    59   28   98 1    
    60   29   30 am   BACKBONE|DICT|INTERRES
    61   29   99 1    
    62   30   31 2    
    63   30   32 1    
    64   32   33 1    
    65   32   34 1    
    66   32  100 1    
    67   33  101 1    
    68   33  102 1    
    69   33  103 1    
    70   34   35 am   BACKBONE|DICT|INTERRES
    71   34  104 1    
    72   35   36 2    
    73   37   38 2    
    74   37   39 am   BACKBONE|DICT|INTERRES
    75   39   40 1    
    76   39  105 1    
    77   40   41 1    
    78   40   42 1    
    79   40  106 1    
    80   41  107 1    
    81   41  108 1    
    82   41  109 1    
    83   42   43 2    
    84   42   44 am   BACKBONE|DICT|INTERRES
    85   44   45 1    
    86   44  110 1    
    87   45   46 1    
    88   45   47 1    
    89   45  111 1    
    90   46  112 1    
    91   46  113 1    
    92   46  114 1    
    93   47   48 2    
    94   47   49 am   BACKBONE|DICT|INTERRES
    95   49   50 1    
    96   49  115 1    
    97   50   51 1    
    98   50   52 1    
    99   50  116 1    
   100   51  117 1    
   101   51  118 1    
   102   51  119 1    
   103   52   53 2    
   104   52   54 am   BACKBONE|DICT|INTERRES
   105   54   55 1    
   106   54  120 1    
   107   55   56 1    
   108   55   57 1    
   109   55  121 1    
   110   56  122 1    
   111   56  123 1    
   112   56  124 1    
   113   57   58 2    
   114   57   59 am   BACKBONE|DICT|INTERRES
   115   59   60 1    
   116   59  125 1    
   117   60   61 1    
   118   60   62 1    
   119   60  126 1    
   120   61  127 1    
   121   61  128 1    
   122   61  129 1    
   123   62   63 2    
   124   62   64 am   BACKBONE|DICT|INTERRES
   125   64   65 1    
   126   64  130 1    
   127   65   66 1    
   128   65   69 1    
   129   65  131 1    
   130   66   67 am   BACKBONE|DICT|INTERRES
   131   66   68 2    
   132   67  132 1    
   133   67  133 1    
   134   69   70 1    
   135   69  134 1    
   136   69  135 1    
   137   70   71 1    
   138   71  136 1    
   139   71  137 1    
@<TRIPOS>SUBSTRUCTURE
     1 UNK         1 GROUP             0       ****    0 ROOT    
