@<TRIPOS>MOLECULE
3R136
137   139    1
SMALL
USER_CHARGES


@<TRIPOS>ATOM
      1 CA         35.1569   20.3811    1.3745 C.3       0 UNK        -0.1979 
      2 C          34.4970   21.7123    1.7029 C.2       0 UNK         0.4864 
      3 O          34.9980   22.4504    2.5525 O.2       0 UNK        -0.5359 
      4 N          33.3827   22.0234    1.0351 N.am      1 UNK        -0.4318 
      5 CA         32.6055   23.2490    1.2041 C.3       1 UNK         0.0824 
      6 C6         31.6833   23.2117    2.4540 C.3       12 UNK        -0.0944 
      7 S7         30.5147   21.8023    2.4974 S.3       12 UNK        -0.2672 
      8 C8         29.9908   21.8091    4.2399 C.3       12 UNK         0.0333 
      9 C9         29.1712   23.0459    4.5759 C.ar      12 UNK        -0.0807 
     10 C10        29.7923   24.1632    5.1374 C.ar      12 UNK        -0.0894 
     11 C11        29.0594   25.3194    5.4205 C.ar      12 UNK        -0.0804 
     12 C12        27.6805   25.3304    5.1880 C.ar      12 UNK        -0.0824 
     13 C13        27.0436   24.2163    4.6310 C.ar      12 UNK        -0.0762 
     14 C14        27.7968   23.0785    4.3212 C.ar      12 UNK        -0.0782 
     15 C15        25.5419   24.2292    4.3762 C.3       12 UNK         0.0230 
     16 S16        25.1158   25.0463    2.8029 S.3       12 UNK        -0.2608 
     17 C17        25.0630   26.8070    3.2870 C.3       12 UNK        -0.0989 
     18 CA         26.2857   27.6067    2.7601 C.3       5 UNK         0.0716 
     19 N          26.3797   27.6309    1.2953 N.am      5 UNK        -0.4135 
     20 C          25.5581   28.2633    0.4449 C.2       4 UNK         0.5031 
     21 O          24.5745   28.9198    0.7901 O.2       4 UNK        -0.5229 
     22 CA         25.8865   28.1498   -1.0558 C.3       4 UNK         0.0329 
     23 CB         26.7555   29.3340   -1.5107 C.3       4 UNK        -0.2001 
     24 N          26.5486   26.8935   -1.4196 N.am      4 UNK        -0.4303 
     25 C          25.9710   25.6842   -1.3686 C.2       3 UNK         0.5044 
     26 O          24.7935   25.5096   -1.0523 O.2       3 UNK        -0.5152 
     27 CA         26.8242   24.4581   -1.7533 C.3       3 UNK         0.0319 
     28 CB         26.2635   23.7852   -3.0184 C.3       3 UNK        -0.2001 
     29 N          28.2516   24.7295   -1.9622 N.am      3 UNK        -0.4354 
     30 C          29.1323   25.0206   -0.9964 C.2       2 UNK         0.4964 
     31 O          28.8221   25.2032    0.1827 O.2       2 UNK        -0.5047 
     32 CA         30.5962   25.1685   -1.4436 C.3       2 UNK         0.0288 
     33 CB         30.8975   26.6156   -1.8572 C.3       2 UNK        -0.2113 
     34 N          31.5021   24.7730   -0.3659 N.am      2 UNK        -0.4145 
     35 C          31.8179   23.5021   -0.0919 C.2       1 UNK         0.5006 
     36 O          31.5057   22.5471   -0.8120 O.2       1 UNK        -0.5103 
     37 C          26.3985   29.0207    3.3802 C.2       5 UNK         0.5055 
     38 O          25.6520   29.3574    4.3025 O.2       5 UNK        -0.5220 
     39 N          27.3315   29.8270    2.8569 N.am      6 UNK        -0.4450 
     40 CA         27.6812   31.1544    3.3676 C.3       6 UNK         0.0367 
     41 CB         28.4286   31.9334    2.2705 C.3       6 UNK        -0.1929 
     42 C          28.5248   31.0683    4.6538 C.2       6 UNK         0.5070 
     43 O          28.9924   29.9917    5.0259 O.2       6 UNK        -0.5237 
     44 N          28.7189   32.2184    5.3091 N.am      7 UNK        -0.4739 
     45 CA         29.4600   32.3356    6.5701 C.3       7 UNK         0.0276 
     46 CB         29.0105   33.6215    7.2852 C.3       7 UNK        -0.1927 
     47 C          30.9944   32.3183    6.4169 C.2       7 UNK         0.5013 
     48 O          31.6873   32.1940    7.4282 O.2       7 UNK        -0.5193 
     49 N          31.5072   32.4731    5.1903 N.am      8 UNK        -0.4253 
     50 CA         32.9317   32.5778    4.8734 C.3       8 UNK         0.0242 
     51 CB         33.4127   34.0193    5.1426 C.3       8 UNK        -0.2000 
     52 C          33.1685   32.1667    3.4129 C.2       8 UNK         0.4948 
     53 O          32.2066   31.8498    2.7096 O.2       8 UNK        -0.5275 
     54 N          34.4443   32.1874    2.9922 N.am      9 UNK        -0.4246 
     55 CA         34.9459   31.9193    1.6348 C.3       9 UNK         0.0261 
     56 CB         34.4755   33.0178    0.6567 C.3       9 UNK        -0.1959 
     57 C          34.5983   30.5004    1.1489 C.2       9 UNK         0.5033 
     58 O          33.8844   30.3422    0.1566 O.2       9 UNK        -0.5390 
     59 N          35.0613   29.4935    1.9084 N.am      10 UNK        -0.4215 
     60 CA         34.7755   28.0559    1.7436 C.3       10 UNK         0.0240 
     61 CB         35.4248   27.5082    0.4545 C.3       10 UNK        -0.1982 
     62 C          33.2712   27.7197    1.8305 C.2       10 UNK         0.4970 
     63 O          32.8238   26.7281    1.2507 O.2       10 UNK        -0.4916 
     64 N          32.5250   28.5737    2.5410 N.am      11 UNK        -0.4279 
     65 CA         31.0618   28.5889    2.6320 C.3       11 UNK         0.1003 
     66 C          30.3574   28.9343    1.2863 C.2       11 UNK         0.5709 
     67 N          31.0139   29.5930    0.3381 N.am      11 UNK        -0.7358 
     68 O          29.1806   28.6381    1.1040 O.2       11 UNK        -0.4999 
     69 C69        30.4738   27.3350    3.3363 C.3       12 UNK        -0.0954 
     70 S70        31.2151   27.0358    4.9794 S.3       12 UNK        -0.2268 
     71 C71        29.7568   26.5598    5.9677 C.3       12 UNK         0.0203 
     72 H72        35.2120   19.7596    2.2678 H         1 UNK         0.0888 
     73 H73        34.6055   19.8304    0.6125 H         1 UNK         0.0888 
     74 H74        36.1702   20.5442    1.0087 H         1 UNK         0.0888 
     75 H75        33.0102   21.4069    0.3230 H         1 UNK         0.3017 
     76 H76        33.3080   24.0777    1.3176 H         1 UNK         0.0873 
     77 H77        31.1095   24.1370    2.5250 H         1 UNK         0.0745 
     78 H78        32.3000   23.1772    3.3532 H         1 UNK         0.0745 
     79 H79        29.3999   20.9128    4.4339 H         1 UNK         0.0705 
     80 H80        30.8683   21.7401    4.8849 H         1 UNK         0.0705 
     81 H81        30.8569   24.1454    5.3266 H         1 UNK         0.1334 
     82 H82        27.1041   26.2129    5.4278 H         1 UNK         0.1417 
     83 H83        27.3148   22.2161    3.8809 H         1 UNK         0.1562 
     84 H84        25.0200   24.7058    5.2071 H         1 UNK         0.0748 
     85 H85        25.1653   23.2058    4.3410 H         1 UNK         0.0748 
     86 H86        24.9955   26.8698    4.3740 H         1 UNK         0.0940 
     87 H87        24.1345   27.2405    2.9119 H         1 UNK         0.0940 
     88 H88        27.1805   27.0807    3.0886 H         1 UNK         0.0703 
     89 H89        27.1816   27.1504    0.9070 H         1 UNK         0.3081 
     90 H90        24.9402   28.1967   -1.5990 H         1 UNK         0.0719 
     91 H91        27.7373   29.3225   -1.0371 H         1 UNK         0.0809 
     92 H92        26.9036   29.3260   -2.5907 H         1 UNK         0.0809 
     93 H93        26.2836   30.2843   -1.2568 H         1 UNK         0.0809 
     94 H94        27.5192   26.9464   -1.6904 H         1 UNK         0.2990 
     95 H95        26.7394   23.7486   -0.9273 H         1 UNK         0.0690 
     96 H96        26.8012   22.8659   -3.2517 H         1 UNK         0.0788 
     97 H97        26.3262   24.4428   -3.8863 H         1 UNK         0.0788 
     98 H98        25.2139   23.5169   -2.8887 H         1 UNK         0.0788 
     99 H99        28.5881   24.6293   -2.9096 H         1 UNK         0.2993 
    100 H100       30.7703   24.5222   -2.3070 H         1 UNK         0.0949 
    101 H101       31.9412   26.7384   -2.1475 H         1 UNK         0.0767 
    102 H102       30.2842   26.9201   -2.7060 H         1 UNK         0.0767 
    103 H103       30.6949   27.3073   -1.0431 H         1 UNK         0.0767 
    104 H104       31.8113   25.5083    0.2672 H         1 UNK         0.3013 
    105 H105       27.9315   29.4449    2.1283 H         1 UNK         0.3121 
    106 H106       26.7555   31.6846    3.6015 H         1 UNK         0.0774 
    107 H107       28.5509   32.9813    2.5458 H         1 UNK         0.0815 
    108 H108       29.4261   31.5326    2.0916 H         1 UNK         0.0815 
    109 H109       27.8851   31.9130    1.3256 H         1 UNK         0.0815 
    110 H110       28.3139   33.0680    4.9413 H         1 UNK         0.2987 
    111 H111       29.1964   31.4867    7.2056 H         1 UNK         0.0949 
    112 H112       29.5061   33.7264    8.2515 H         1 UNK         0.0806 
    113 H113       29.2461   34.5120    6.7011 H         1 UNK         0.0806 
    114 H114       27.9370   33.6167    7.4751 H         1 UNK         0.0806 
    115 H115       30.8919   32.4883    4.3871 H         1 UNK         0.3010 
    116 H116       33.4892   31.8822    5.5045 H         1 UNK         0.0829 
    117 H117       33.2369   34.3110    6.1782 H         1 UNK         0.0813 
    118 H118       34.4825   34.1283    4.9629 H         1 UNK         0.0813 
    119 H119       32.8985   34.7383    4.5035 H         1 UNK         0.0813 
    120 H120       35.1534   32.4450    3.6653 H         1 UNK         0.3038 
    121 H121       36.0348   31.9719    1.6842 H         1 UNK         0.0769 
    122 H122       34.9072   32.8684   -0.3337 H         1 UNK         0.0811 
    123 H123       34.7784   34.0080    0.9966 H         1 UNK         0.0811 
    124 H124       33.3911   33.0213    0.5396 H         1 UNK         0.0811 
    125 H125       35.6289   29.7339    2.7102 H         1 UNK         0.3204 
    126 H126       35.2437   27.5503    2.5894 H         1 UNK         0.0748 
    127 H127       35.3373   26.4221    0.4024 H         1 UNK         0.0771 
    128 H128       34.9519   27.9143   -0.4403 H         1 UNK         0.0771 
    129 H129       36.4871   27.7483    0.4117 H         1 UNK         0.0771 
    130 H130       32.9814   29.3759    2.9463 H         1 UNK         0.2980 
    131 H131       30.8389   29.4423    3.2703 H         1 UNK         0.0545 
    132 H132       30.5357   29.8257   -0.5154 H         1 UNK         0.3459 
    133 H133       31.9862   29.8601    0.4556 H         1 UNK         0.3459 
    134 H134       29.4003   27.4631    3.4693 H         1 UNK         0.0616 
    135 H135       30.5995   26.4436    2.7214 H         1 UNK         0.0616 
    136 H136       29.0709   27.4074    6.0084 H         1 UNK         0.0634 
    137 H137       30.0735   26.3652    6.9929 H         1 UNK         0.0634 
@<TRIPOS>BOND
     1    1    2 1    
     2    1   72 1    
     3    1   73 1    
     4    1   74 1    
     5    2    3 2    
     6    2    4 am   BACKBONE|DICT|INTERRES
     7    4    5 1    
     8    4   75 1    
     9    5    6 1    
    10    5   35 1    
    11    5   76 1    
    12    6    7 1    
    13    6   77 1    
    14    6   78 1    
    15    7    8 1    
    16    8    9 1    
    17    8   79 1    
    18    8   80 1    
    19    9   10 ar   
    20    9   14 ar   
    21   10   11 ar   
    22   10   81 1    
    23   11   12 ar   
    24   11   71 1    
    25   12   13 ar   
    26   12   82 1    
    27   13   14 ar   
    28   13   15 1    
    29   14   83 1    
    30   15   16 1    
    31   15   84 1    
    32   15   85 1    
    33   16   17 1    
    34   17   18 1    
    35   17   86 1    
    36   17   87 1    
    37   18   19 1    
    38   18   37 1    
    39   18   88 1    
    40   19   20 am   BACKBONE|DICT|INTERRES
    41   19   89 1    
    42   20   21 2    
    43   20   22 1    
    44   22   23 1    
    45   22   24 1    
    46   22   90 1    
    47   23   91 1    
    48   23   92 1    
    49   23   93 1    
    50   24   25 am   BACKBONE|DICT|INTERRES
    51   24   94 1    
    52   25   26 2    
    53   25   27 1    
    54   27   28 1    
    55   27   29 1    
    56   27   95 1    
    57   28   96 1    
    58   28   97 1    
    59   28   98 1    
    60   29   30 am   BACKBONE|DICT|INTERRES
    61   29   99 1    
    62   30   31 2    
    63   30   32 1    
    64   32   33 1    
    65   32   34 1    
    66   32  100 1    
    67   33  101 1    
    68   33  102 1    
    69   33  103 1    
    70   34   35 am   BACKBONE|DICT|INTERRES
    71   34  104 1    
    72   35   36 2    
    73   37   38 2    
    74   37   39 am   BACKBONE|DICT|INTERRES
    75   39   40 1    
    76   39  105 1    
    77   40   41 1    
    78   40   42 1    
    79   40  106 1    
    80   41  107 1    
    81   41  108 1    
    82   41  109 1    
    83   42   43 2    
    84   42   44 am   BACKBONE|DICT|INTERRES
    85   44   45 1    
    86   44  110 1    
    87   45   46 1    
    88   45   47 1    
    89   45  111 1    
    90   46  112 1    
    91   46  113 1    
    92   46  114 1    
    93   47   48 2    
    94   47   49 am   BACKBONE|DICT|INTERRES
    95   49   50 1    
    96   49  115 1    
    97   50   51 1    
    98   50   52 1    
    99   50  116 1    
   100   51  117 1    
   101   51  118 1    
   102   51  119 1    
   103   52   53 2    
   104   52   54 am   BACKBONE|DICT|INTERRES
   105   54   55 1    
   106   54  120 1    
   107   55   56 1    
   108   55   57 1    
   109   55  121 1    
   110   56  122 1    
   111   56  123 1    
   112   56  124 1    
   113   57   58 2    
   114   57   59 am   BACKBONE|DICT|INTERRES
   115   59   60 1    
   116   59  125 1    
   117   60   61 1    
   118   60   62 1    
   119   60  126 1    
   120   61  127 1    
   121   61  128 1    
   122   61  129 1    
   123   62   63 2    
   124   62   64 am   BACKBONE|DICT|INTERRES
   125   64   65 1    
   126   64  130 1    
   127   65   66 1    
   128   65   69 1    
   129   65  131 1    
   130   66   67 am   BACKBONE|DICT|INTERRES
   131   66   68 2    
   132   67  132 1    
   133   67  133 1    
   134   69   70 1    
   135   69  134 1    
   136   69  135 1    
   137   70   71 1    
   138   71  136 1    
   139   71  137 1    
@<TRIPOS>SUBSTRUCTURE
     1 UNK         1 GROUP             0       ****    0 ROOT    
