@<TRIPOS>MOLECULE
3R136
137   139    1
SMALL
USER_CHARGES


@<TRIPOS>ATOM
      1 CA         31.0668   24.6680   -3.9822 C.3       0 UNK        -0.1979 
      2 C          31.2189   23.9769   -2.6353 C.2       0 UNK         0.4864 
      3 O          32.3234   23.9375   -2.0919 O.2       0 UNK        -0.5359 
      4 N          30.1182   23.4398   -2.0980 N.am      1 UNK        -0.4318 
      5 CA         30.0163   22.8271   -0.7756 C.3       1 UNK         0.0824 
      6 C6         30.7971   21.4837   -0.6500 C.3       12 UNK        -0.0944 
      7 S7         31.1470   20.9368    1.0620 S.3       12 UNK        -0.2672 
      8 C8         32.5449   21.9934    1.5763 C.3       12 UNK         0.0333 
      9 C9         32.0542   23.2975    2.1900 C.ar      12 UNK        -0.0807 
     10 C10        31.4230   23.2921    3.4372 C.ar      12 UNK        -0.0894 
     11 C11        30.8869   24.4680    3.9714 C.ar      12 UNK        -0.0804 
     12 C12        30.9795   25.6584    3.2417 C.ar      12 UNK        -0.0824 
     13 C13        31.6315   25.6786    2.0036 C.ar      12 UNK        -0.0762 
     14 C14        32.1950   24.5032    1.4999 C.ar      12 UNK        -0.0782 
     15 C15        31.6975   26.9561    1.1832 C.3       12 UNK         0.0230 
     16 S16        30.6371   26.7943   -0.2831 S.3       12 UNK        -0.2608 
     17 C17        30.2778   28.5317   -0.7199 C.3       12 UNK        -0.0989 
     18 CA         28.9877   29.0908   -0.0540 C.3       5 UNK         0.0716 
     19 N          27.9243   28.0875   -0.0449 N.am      5 UNK        -0.4135 
     20 C          26.6133   28.2890   -0.1974 C.2       4 UNK         0.5031 
     21 O          26.0985   29.3917   -0.3825 O.2       4 UNK        -0.5229 
     22 CA         25.7326   27.0284   -0.0950 C.3       4 UNK         0.0329 
     23 CB         25.5611   26.3764   -1.4761 C.3       4 UNK        -0.2001 
     24 N          26.2621   26.0319    0.8476 N.am      4 UNK        -0.4303 
     25 C          26.3808   26.2356    2.1689 C.2       3 UNK         0.5044 
     26 O          26.0543   27.2927    2.7077 O.2       3 UNK        -0.5152 
     27 CA         27.0249   25.1336    3.0354 C.3       3 UNK         0.0319 
     28 CB         26.2878   24.9434    4.3773 C.3       3 UNK        -0.2001 
     29 N          27.2355   23.8465    2.3626 N.am      3 UNK        -0.4354 
     30 C          26.3100   23.0045    1.8758 C.2       2 UNK         0.4964 
     31 O          25.0964   23.2021    1.9467 O.2       2 UNK        -0.5047 
     32 CA         26.8433   21.7355    1.1765 C.3       2 UNK         0.0288 
     33 CB         25.8507   21.1644    0.1407 C.3       2 UNK        -0.2113 
     34 N          28.1752   21.9148    0.5775 N.am      2 UNK        -0.4145 
     35 C          28.5256   22.7791   -0.3861 C.2       1 UNK         0.5006 
     36 O          27.7319   23.5539   -0.9297 O.2       1 UNK        -0.5103 
     37 C          29.2842   29.6700    1.3462 C.2       5 UNK         0.5055 
     38 O          30.1711   30.5190    1.4461 O.2       5 UNK        -0.5220 
     39 N          28.5735   29.2394    2.4042 N.am      6 UNK        -0.4450 
     40 CA         28.8391   29.6343    3.7988 C.3       6 UNK         0.0367 
     41 CB         27.9797   28.7936    4.7551 C.3       6 UNK        -0.1929 
     42 C          28.6664   31.1383    4.0966 C.2       6 UNK         0.5070 
     43 O          29.1555   31.6175    5.1191 O.2       6 UNK        -0.5237 
     44 N          28.0010   31.8699    3.1954 N.am      7 UNK        -0.4739 
     45 CA         27.9213   33.3299    3.2161 C.3       7 UNK         0.0276 
     46 CB         26.7563   33.7720    2.3148 C.3       7 UNK        -0.1927 
     47 C          29.2293   34.0248    2.7828 C.2       7 UNK         0.5013 
     48 O          29.3568   35.2265    3.0235 O.2       7 UNK        -0.5193 
     49 N          30.1507   33.2958    2.1320 N.am      8 UNK        -0.4253 
     50 CA         31.3521   33.8514    1.5055 C.3       8 UNK         0.0242 
     51 CB         31.1668   33.8363   -0.0220 C.3       8 UNK        -0.2000 
     52 C          32.6544   33.1278    1.8832 C.2       8 UNK         0.4948 
     53 O          33.6874   33.7972    1.9461 O.2       8 UNK        -0.5275 
     54 N          32.6251   31.8030    2.0871 N.am      9 UNK        -0.4246 
     55 CA         33.8289   30.9800    2.2392 C.3       9 UNK         0.0261 
     56 CB         34.2077   30.4047    0.8615 C.3       9 UNK        -0.1959 
     57 C          33.6274   29.8467    3.2512 C.2       9 UNK         0.5033 
     58 O          32.4880   29.4874    3.5555 O.2       9 UNK        -0.5390 
     59 N          34.7566   29.2854    3.7142 N.am      10 UNK        -0.4215 
     60 CA         34.9025   28.1186    4.5952 C.3       10 UNK         0.0240 
     61 CB         34.6199   26.8195    3.8127 C.3       10 UNK        -0.1982 
     62 C          34.0849   28.2458    5.8924 C.2       10 UNK         0.4970 
     63 O          34.5440   28.9069    6.8250 O.2       10 UNK        -0.4916 
     64 N          32.8965   27.6299    5.9198 N.am      11 UNK        -0.4279 
     65 CA         31.9025   27.7518    6.9964 C.3       11 UNK         0.1003 
     66 C          31.3384   29.1894    7.1936 C.2       11 UNK         0.5709 
     67 N          31.4445   30.0768    6.2137 N.am      11 UNK        -0.7358 
     68 O          30.7856   29.4926    8.2482 O.2       11 UNK        -0.4999 
     69 C69        30.7267   26.7591    6.8060 C.3       12 UNK        -0.0954 
     70 S70        31.2434   25.0149    6.6706 S.3       12 UNK        -0.2268 
     71 C71        30.1763   24.4278    5.3172 C.3       12 UNK         0.0203 
     72 H72        30.0470   24.6032   -4.3613 H         1 UNK         0.0888 
     73 H73        31.3285   25.7220   -3.8913 H         1 UNK         0.0888 
     74 H74        31.7314   24.2123   -4.7157 H         1 UNK         0.0888 
     75 H75        29.2209   23.5546   -2.5537 H         1 UNK         0.3017 
     76 H76        30.4482   23.5464   -0.0875 H         1 UNK         0.0873 
     77 H77        30.2580   20.6869   -1.1656 H         1 UNK         0.0745 
     78 H78        31.7585   21.5509   -1.1597 H         1 UNK         0.0745 
     79 H79        33.1391   21.4551    2.3160 H         1 UNK         0.0705 
     80 H80        33.2053   22.1781    0.7274 H         1 UNK         0.0705 
     81 H81        31.3264   22.3612    3.9796 H         1 UNK         0.1334 
     82 H82        30.5407   26.5665    3.6311 H         1 UNK         0.1417 
     83 H83        32.6814   24.5178    0.5331 H         1 UNK         0.1562 
     84 H84        32.7250   27.1525    0.8739 H         1 UNK         0.0748 
     85 H85        31.3847   27.8095    1.7841 H         1 UNK         0.0748 
     86 H86        30.1469   28.5577   -1.8027 H         1 UNK         0.0940 
     87 H87        31.1532   29.1559   -0.5288 H         1 UNK         0.0940 
     88 H88        28.6535   29.9401   -0.6538 H         1 UNK         0.0703 
     89 H89        28.2473   27.1375    0.0761 H         1 UNK         0.3081 
     90 H90        24.7492   27.3406    0.2630 H         1 UNK         0.0719 
     91 H91        25.1471   27.0852   -2.1946 H         1 UNK         0.0809 
     92 H92        24.8803   25.5261   -1.4310 H         1 UNK         0.0809 
     93 H93        26.5118   26.0213   -1.8768 H         1 UNK         0.0809 
     94 H94        26.5531   25.1425    0.4615 H         1 UNK         0.2990 
     95 H95        28.0234   25.5055    3.2639 H         1 UNK         0.0690 
     96 H96        26.7758   24.1904    4.9959 H         1 UNK         0.0788 
     97 H97        25.2520   24.6366    4.2300 H         1 UNK         0.0788 
     98 H98        26.2710   25.8702    4.9523 H         1 UNK         0.0788 
     99 H99        28.2029   23.5809    2.2425 H         1 UNK         0.2993 
    100 H100       26.9612   20.9900    1.9646 H         1 UNK         0.0949 
    101 H101       24.9059   20.8909    0.6121 H         1 UNK         0.0767 
    102 H102       25.6239   21.8861   -0.6448 H         1 UNK         0.0767 
    103 H103       26.2456   20.2657   -0.3332 H         1 UNK         0.0767 
    104 H104       28.9146   21.3377    0.9635 H         1 UNK         0.3013 
    105 H105       27.8104   28.5903    2.2580 H         1 UNK         0.3121 
    106 H106       29.8844   29.3953    3.9981 H         1 UNK         0.0774 
    107 H107       28.2213   29.0188    5.7949 H         1 UNK         0.0815 
    108 H108       26.9160   28.9916    4.6186 H         1 UNK         0.0815 
    109 H109       28.1464   27.7270    4.6099 H         1 UNK         0.0815 
    110 H110       27.6146   31.3993    2.3900 H         1 UNK         0.2987 
    111 H111       27.7057   33.6523    4.2374 H         1 UNK         0.0949 
    112 H112       25.8112   33.3420    2.6471 H         1 UNK         0.0806 
    113 H113       26.6392   34.8566    2.3311 H         1 UNK         0.0806 
    114 H114       26.9143   33.4774    1.2764 H         1 UNK         0.0806 
    115 H115       29.9875   32.3022    1.9908 H         1 UNK         0.3010 
    116 H116       31.4859   34.8910    1.8121 H         1 UNK         0.0829 
    117 H117       30.3094   34.4387   -0.3226 H         1 UNK         0.0813 
    118 H118       32.0427   34.2446   -0.5282 H         1 UNK         0.0813 
    119 H119       31.0135   32.8235   -0.3977 H         1 UNK         0.0813 
    120 H120       31.7473   31.2883    2.0390 H         1 UNK         0.3038 
    121 H121       34.6543   31.5928    2.6079 H         1 UNK         0.0769 
    122 H122       33.4101   29.7801    0.4574 H         1 UNK         0.0811 
    123 H123       35.1070   29.7902    0.9173 H         1 UNK         0.0811 
    124 H124       34.4061   31.1990    0.1416 H         1 UNK         0.0811 
    125 H125       35.6307   29.6970    3.4174 H         1 UNK         0.3204 
    126 H126       35.9497   28.0899    4.9008 H         1 UNK         0.0748 
    127 H127       35.3386   26.6844    3.0044 H         1 UNK         0.0771 
    128 H128       34.6900   25.9412    4.4562 H         1 UNK         0.0771 
    129 H129       33.6285   26.8272    3.3678 H         1 UNK         0.0771 
    130 H130       32.6009   27.1238    5.0995 H         1 UNK         0.2980 
    131 H131       32.4112   27.4918    7.9264 H         1 UNK         0.0545 
    132 H132       31.0018   30.9783    6.3111 H         1 UNK         0.3459 
    133 H133       31.8668   29.8181    5.3268 H         1 UNK         0.3459 
    134 H134       30.0339   26.8235    7.6472 H         1 UNK         0.0616 
    135 H135       30.1524   27.0385    5.9225 H         1 UNK         0.0616 
    136 H136       29.2553   25.0097    5.2808 H         1 UNK         0.0634 
    137 H137       29.8690   23.4062    5.5456 H         1 UNK         0.0634 
@<TRIPOS>BOND
     1    1    2 1    
     2    1   72 1    
     3    1   73 1    
     4    1   74 1    
     5    2    3 2    
     6    2    4 am   BACKBONE|DICT|INTERRES
     7    4    5 1    
     8    4   75 1    
     9    5    6 1    
    10    5   35 1    
    11    5   76 1    
    12    6    7 1    
    13    6   77 1    
    14    6   78 1    
    15    7    8 1    
    16    8    9 1    
    17    8   79 1    
    18    8   80 1    
    19    9   10 ar   
    20    9   14 ar   
    21   10   11 ar   
    22   10   81 1    
    23   11   12 ar   
    24   11   71 1    
    25   12   13 ar   
    26   12   82 1    
    27   13   14 ar   
    28   13   15 1    
    29   14   83 1    
    30   15   16 1    
    31   15   84 1    
    32   15   85 1    
    33   16   17 1    
    34   17   18 1    
    35   17   86 1    
    36   17   87 1    
    37   18   19 1    
    38   18   37 1    
    39   18   88 1    
    40   19   20 am   BACKBONE|DICT|INTERRES
    41   19   89 1    
    42   20   21 2    
    43   20   22 1    
    44   22   23 1    
    45   22   24 1    
    46   22   90 1    
    47   23   91 1    
    48   23   92 1    
    49   23   93 1    
    50   24   25 am   BACKBONE|DICT|INTERRES
    51   24   94 1    
    52   25   26 2    
    53   25   27 1    
    54   27   28 1    
    55   27   29 1    
    56   27   95 1    
    57   28   96 1    
    58   28   97 1    
    59   28   98 1    
    60   29   30 am   BACKBONE|DICT|INTERRES
    61   29   99 1    
    62   30   31 2    
    63   30   32 1    
    64   32   33 1    
    65   32   34 1    
    66   32  100 1    
    67   33  101 1    
    68   33  102 1    
    69   33  103 1    
    70   34   35 am   BACKBONE|DICT|INTERRES
    71   34  104 1    
    72   35   36 2    
    73   37   38 2    
    74   37   39 am   BACKBONE|DICT|INTERRES
    75   39   40 1    
    76   39  105 1    
    77   40   41 1    
    78   40   42 1    
    79   40  106 1    
    80   41  107 1    
    81   41  108 1    
    82   41  109 1    
    83   42   43 2    
    84   42   44 am   BACKBONE|DICT|INTERRES
    85   44   45 1    
    86   44  110 1    
    87   45   46 1    
    88   45   47 1    
    89   45  111 1    
    90   46  112 1    
    91   46  113 1    
    92   46  114 1    
    93   47   48 2    
    94   47   49 am   BACKBONE|DICT|INTERRES
    95   49   50 1    
    96   49  115 1    
    97   50   51 1    
    98   50   52 1    
    99   50  116 1    
   100   51  117 1    
   101   51  118 1    
   102   51  119 1    
   103   52   53 2    
   104   52   54 am   BACKBONE|DICT|INTERRES
   105   54   55 1    
   106   54  120 1    
   107   55   56 1    
   108   55   57 1    
   109   55  121 1    
   110   56  122 1    
   111   56  123 1    
   112   56  124 1    
   113   57   58 2    
   114   57   59 am   BACKBONE|DICT|INTERRES
   115   59   60 1    
   116   59  125 1    
   117   60   61 1    
   118   60   62 1    
   119   60  126 1    
   120   61  127 1    
   121   61  128 1    
   122   61  129 1    
   123   62   63 2    
   124   62   64 am   BACKBONE|DICT|INTERRES
   125   64   65 1    
   126   64  130 1    
   127   65   66 1    
   128   65   69 1    
   129   65  131 1    
   130   66   67 am   BACKBONE|DICT|INTERRES
   131   66   68 2    
   132   67  132 1    
   133   67  133 1    
   134   69   70 1    
   135   69  134 1    
   136   69  135 1    
   137   70   71 1    
   138   71  136 1    
   139   71  137 1    
@<TRIPOS>SUBSTRUCTURE
     1 UNK         1 GROUP             0       ****    0 ROOT    
