@<TRIPOS>MOLECULE
3R136
137   139    1
SMALL
USER_CHARGES


@<TRIPOS>ATOM
      1 CA         27.0776   22.0828    5.3842 C.3       0 UNK        -0.1979 
      2 C          27.1416   22.7544    4.0209 C.2       0 UNK         0.4864 
      3 O          26.3765   23.6854    3.7638 O.2       0 UNK        -0.5359 
      4 N          28.0566   22.2967    3.1523 N.am      1 UNK        -0.4318 
      5 CA         28.2817   22.8079    1.7921 C.3       1 UNK         0.0824 
      6 C6         29.3528   21.9956    1.0191 C.3       12 UNK        -0.0944 
      7 S7         30.9460   21.8284    1.9031 S.3       12 UNK        -0.2672 
      8 C8         32.1636   22.1966    0.5979 C.3       12 UNK         0.0333 
      9 C9         32.4763   23.6833    0.4654 C.ar      12 UNK        -0.0807 
     10 C10        33.1478   24.3502    1.4957 C.ar      12 UNK        -0.0894 
     11 C11        33.5396   25.6837    1.3440 C.ar      12 UNK        -0.0804 
     12 C12        33.2367   26.3555    0.1572 C.ar      12 UNK        -0.0824 
     13 C13        32.5491   25.7140   -0.8773 C.ar      12 UNK        -0.0762 
     14 C14        32.1778   24.3711   -0.7165 C.ar      12 UNK        -0.0782 
     15 C15        32.2688   26.4884   -2.1682 C.3       12 UNK         0.0230 
     16 S16        30.6952   26.0638   -2.9901 S.3       12 UNK        -0.2608 
     17 C17        29.5167   26.3270   -1.6270 C.3       12 UNK        -0.0989 
     18 CA         28.2353   27.1027   -2.0191 C.3       5 UNK         0.0716 
     19 N          27.1771   26.7887   -1.0610 N.am      5 UNK        -0.4135 
     20 C          25.8729   27.0559   -1.1817 C.2       4 UNK         0.5031 
     21 O          25.3642   27.5890   -2.1692 O.2       4 UNK        -0.5229 
     22 CA         24.9796   26.6263   -0.0062 C.3       4 UNK         0.0329 
     23 CB         24.5212   25.1702   -0.1911 C.3       4 UNK        -0.2001 
     24 N          25.6611   26.7491    1.2867 N.am      4 UNK        -0.4303 
     25 C          25.6114   27.8323    2.0743 C.2       3 UNK         0.5044 
     26 O          24.9841   28.8543    1.7933 O.2       3 UNK        -0.5152 
     27 CA         26.3548   27.7626    3.4217 C.3       3 UNK         0.0319 
     28 CB         25.4063   27.2750    4.5287 C.3       3 UNK        -0.2001 
     29 N          27.5325   26.8949    3.3938 N.am      3 UNK        -0.4354 
     30 C          28.7069   27.2318    2.8413 C.2       2 UNK         0.4964 
     31 O          28.9237   28.3133    2.2973 O.2       2 UNK        -0.5047 
     32 CA         29.8263   26.1756    2.8957 C.3       2 UNK         0.0288 
     33 CB         30.5694   26.2595    4.2374 C.3       2 UNK        -0.2113 
     34 N          29.3830   24.7916    2.7176 N.am      2 UNK        -0.4145 
     35 C          28.5878   24.3155    1.7506 C.2       1 UNK         0.5006 
     36 O          28.0575   25.0099    0.8857 O.2       1 UNK        -0.5103 
     37 C          28.4886   28.6228   -2.1261 C.2       5 UNK         0.5055 
     38 O          28.0328   29.4006   -1.2826 O.2       5 UNK        -0.5220 
     39 N          29.2527   29.0190   -3.1524 N.am      6 UNK        -0.4450 
     40 CA         29.7133   30.3873   -3.4065 C.3       6 UNK         0.0367 
     41 CB         30.1293   30.5044   -4.8847 C.3       6 UNK        -0.1929 
     42 C          30.8419   30.8008   -2.4383 C.2       6 UNK         0.5070 
     43 O          31.9637   31.0778   -2.8664 O.2       6 UNK        -0.5237 
     44 N          30.5211   30.8120   -1.1437 N.am      7 UNK        -0.4739 
     45 CA         31.3868   31.1762   -0.0286 C.3       7 UNK         0.0276 
     46 CB         32.2614   29.9687    0.3727 C.3       7 UNK        -0.1927 
     47 C          30.4971   31.7239    1.0998 C.2       7 UNK         0.5013 
     48 O          29.5562   32.4697    0.8158 O.2       7 UNK        -0.5193 
     49 N          30.7915   31.3548    2.3485 N.am      8 UNK        -0.4253 
     50 CA         29.9945   31.6544    3.5310 C.3       8 UNK         0.0242 
     51 CB         30.4503   32.9870    4.1512 C.3       8 UNK        -0.2000 
     52 C          30.1840   30.4972    4.5118 C.2       8 UNK         0.4948 
     53 O          31.2530   29.8818    4.5142 O.2       8 UNK        -0.5275 
     54 N          29.1698   30.2543    5.3554 N.am      9 UNK        -0.4246 
     55 CA         29.0856   29.1414    6.3143 C.3       9 UNK         0.0261 
     56 CB         27.7853   29.2730    7.1230 C.3       9 UNK        -0.1959 
     57 C          30.2909   28.9927    7.2630 C.2       9 UNK         0.5033 
     58 O          30.5744   27.8809    7.7114 O.2       9 UNK        -0.5390 
     59 N          30.9963   30.1033    7.5167 N.am      10 UNK        -0.4215 
     60 CA         32.2331   30.1845    8.2927 C.3       10 UNK         0.0240 
     61 CB         32.6736   31.6552    8.3779 C.3       10 UNK        -0.1982 
     62 C          33.3874   29.3097    7.7657 C.2       10 UNK         0.4970 
     63 O          34.2392   28.9328    8.5724 O.2       10 UNK        -0.4916 
     64 N          33.4105   28.9902    6.4601 N.am      11 UNK        -0.4279 
     65 CA         34.3885   28.0492    5.8858 C.3       11 UNK         0.1003 
     66 C          34.0982   26.5470    6.1858 C.2       11 UNK         0.5709 
     67 N          32.9602   26.1848    6.7697 N.am      11 UNK        -0.7358 
     68 O          34.9393   25.6949    5.9098 O.2       11 UNK        -0.4999 
     69 C69        34.7127   28.3488    4.3941 C.3       12 UNK        -0.0954 
     70 S70        33.4776   27.7874    3.1712 S.3       12 UNK        -0.2268 
     71 C71        34.3554   26.3776    2.4264 C.3       12 UNK         0.0203 
     72 H72        26.0878   21.6568    5.5451 H         1 UNK         0.0888 
     73 H73        27.2666   22.8130    6.1706 H         1 UNK         0.0888 
     74 H74        27.8113   21.2827    5.4800 H         1 UNK         0.0888 
     75 H75        28.6644   21.5380    3.4285 H         1 UNK         0.3017 
     76 H76        27.3358   22.6808    1.2610 H         1 UNK         0.0873 
     77 H77        28.9758   20.9887    0.8339 H         1 UNK         0.0745 
     78 H78        29.5187   22.4285    0.0302 H         1 UNK         0.0745 
     79 H79        33.0894   21.6724    0.8392 H         1 UNK         0.0705 
     80 H80        31.8240   21.7771   -0.3504 H         1 UNK         0.0705 
     81 H81        33.3966   23.8154    2.4023 H         1 UNK         0.1334 
     82 H82        33.5588   27.3801    0.0370 H         1 UNK         0.1417 
     83 H83        31.6768   23.8527   -1.5223 H         1 UNK         0.1562 
     84 H84        33.0868   26.3083   -2.8667 H         1 UNK         0.0748 
     85 H85        32.2632   27.5617   -1.9699 H         1 UNK         0.0748 
     86 H86        30.0033   26.7962   -0.7687 H         1 UNK         0.0940 
     87 H87        29.2546   25.3204   -1.3006 H         1 UNK         0.0940 
     88 H88        27.8927   26.7521   -2.9950 H         1 UNK         0.0703 
     89 H89        27.4840   26.2985   -0.2239 H         1 UNK         0.3081 
     90 H90        24.0914   27.2619   -0.0137 H         1 UNK         0.0719 
     91 H91        25.3633   24.4766   -0.1883 H         1 UNK         0.0809 
     92 H92        23.8362   24.8675    0.6011 H         1 UNK         0.0809 
     93 H93        23.9963   25.0435   -1.1391 H         1 UNK         0.0809 
     94 H94        26.2434   25.9713    1.5714 H         1 UNK         0.2990 
     95 H95        26.6798   28.7745    3.6740 H         1 UNK         0.0690 
     96 H96        25.9003   27.2602    5.5000 H         1 UNK         0.0788 
     97 H97        25.0371   26.2681    4.3276 H         1 UNK         0.0788 
     98 H98        24.5383   27.9301    4.6156 H         1 UNK         0.0788 
     99 H99        27.4260   25.9674    3.7834 H         1 UNK         0.2993 
    100 H100       30.5298   26.4015    2.0911 H         1 UNK         0.0949 
    101 H101       30.8990   27.2776    4.4412 H         1 UNK         0.0767 
    102 H102       29.9413   25.9497    5.0734 H         1 UNK         0.0767 
    103 H103       31.4601   25.6308    4.2348 H         1 UNK         0.0767 
    104 H104       29.7610   24.1185    3.3679 H         1 UNK         0.3013 
    105 H105       29.6349   28.3027   -3.7551 H         1 UNK         0.3121 
    106 H106       28.8784   31.0718   -3.2409 H         1 UNK         0.0774 
    107 H107       30.9569   29.8361   -5.1264 H         1 UNK         0.0815 
    108 H108       30.4506   31.5199   -5.1202 H         1 UNK         0.0815 
    109 H109       29.2998   30.2671   -5.5509 H         1 UNK         0.0815 
    110 H110       29.5646   30.5696   -0.8933 H         1 UNK         0.2987 
    111 H111       32.0392   31.9952   -0.3388 H         1 UNK         0.0949 
    112 H112       31.6573   29.1326    0.7300 H         1 UNK         0.0806 
    113 H113       32.8499   29.6163   -0.4739 H         1 UNK         0.0806 
    114 H114       32.9713   30.2305    1.1581 H         1 UNK         0.0806 
    115 H115       31.5316   30.6833    2.5173 H         1 UNK         0.3010 
    116 H116       28.9386   31.7109    3.2563 H         1 UNK         0.0829 
    117 H117       30.3266   33.8125    3.4499 H         1 UNK         0.0813 
    118 H118       29.8658   33.2277    5.0398 H         1 UNK         0.0813 
    119 H119       31.4998   32.9545    4.4471 H         1 UNK         0.0813 
    120 H120       28.3506   30.8418    5.2916 H         1 UNK         0.3038 
    121 H121       29.0245   28.2230    5.7300 H         1 UNK         0.0769 
    122 H122       27.7762   30.1812    7.7269 H         1 UNK         0.0811 
    123 H123       27.6614   28.4284    7.8024 H         1 UNK         0.0811 
    124 H124       26.9106   29.2939    6.4732 H         1 UNK         0.0811 
    125 H125       30.6835   30.9579    7.0809 H         1 UNK         0.3204 
    126 H126       32.0024   29.8367    9.3017 H         1 UNK         0.0748 
    127 H127       33.5802   31.7581    8.9761 H         1 UNK         0.0771 
    128 H128       32.8853   32.0701    7.3914 H         1 UNK         0.0771 
    129 H129       31.9081   32.2739    8.8468 H         1 UNK         0.0771 
    130 H130       32.6716   29.3099    5.8399 H         1 UNK         0.2980 
    131 H131       35.3290   28.2394    6.4067 H         1 UNK         0.0545 
    132 H132       32.8018   25.2104    6.9669 H         1 UNK         0.3459 
    133 H133       32.2574   26.8694    7.0224 H         1 UNK         0.3459 
    134 H134       34.8479   29.4227    4.2581 H         1 UNK         0.0616 
    135 H135       35.6782   27.9079    4.1410 H         1 UNK         0.0616 
    136 H136       35.2922   26.7293    1.9919 H         1 UNK         0.0634 
    137 H137       34.6246   25.6707    3.2119 H         1 UNK         0.0634 
@<TRIPOS>BOND
     1    1    2 1    
     2    1   72 1    
     3    1   73 1    
     4    1   74 1    
     5    2    3 2    
     6    2    4 am   BACKBONE|DICT|INTERRES
     7    4    5 1    
     8    4   75 1    
     9    5    6 1    
    10    5   35 1    
    11    5   76 1    
    12    6    7 1    
    13    6   77 1    
    14    6   78 1    
    15    7    8 1    
    16    8    9 1    
    17    8   79 1    
    18    8   80 1    
    19    9   10 ar   
    20    9   14 ar   
    21   10   11 ar   
    22   10   81 1    
    23   11   12 ar   
    24   11   71 1    
    25   12   13 ar   
    26   12   82 1    
    27   13   14 ar   
    28   13   15 1    
    29   14   83 1    
    30   15   16 1    
    31   15   84 1    
    32   15   85 1    
    33   16   17 1    
    34   17   18 1    
    35   17   86 1    
    36   17   87 1    
    37   18   19 1    
    38   18   37 1    
    39   18   88 1    
    40   19   20 am   BACKBONE|DICT|INTERRES
    41   19   89 1    
    42   20   21 2    
    43   20   22 1    
    44   22   23 1    
    45   22   24 1    
    46   22   90 1    
    47   23   91 1    
    48   23   92 1    
    49   23   93 1    
    50   24   25 am   BACKBONE|DICT|INTERRES
    51   24   94 1    
    52   25   26 2    
    53   25   27 1    
    54   27   28 1    
    55   27   29 1    
    56   27   95 1    
    57   28   96 1    
    58   28   97 1    
    59   28   98 1    
    60   29   30 am   BACKBONE|DICT|INTERRES
    61   29   99 1    
    62   30   31 2    
    63   30   32 1    
    64   32   33 1    
    65   32   34 1    
    66   32  100 1    
    67   33  101 1    
    68   33  102 1    
    69   33  103 1    
    70   34   35 am   BACKBONE|DICT|INTERRES
    71   34  104 1    
    72   35   36 2    
    73   37   38 2    
    74   37   39 am   BACKBONE|DICT|INTERRES
    75   39   40 1    
    76   39  105 1    
    77   40   41 1    
    78   40   42 1    
    79   40  106 1    
    80   41  107 1    
    81   41  108 1    
    82   41  109 1    
    83   42   43 2    
    84   42   44 am   BACKBONE|DICT|INTERRES
    85   44   45 1    
    86   44  110 1    
    87   45   46 1    
    88   45   47 1    
    89   45  111 1    
    90   46  112 1    
    91   46  113 1    
    92   46  114 1    
    93   47   48 2    
    94   47   49 am   BACKBONE|DICT|INTERRES
    95   49   50 1    
    96   49  115 1    
    97   50   51 1    
    98   50   52 1    
    99   50  116 1    
   100   51  117 1    
   101   51  118 1    
   102   51  119 1    
   103   52   53 2    
   104   52   54 am   BACKBONE|DICT|INTERRES
   105   54   55 1    
   106   54  120 1    
   107   55   56 1    
   108   55   57 1    
   109   55  121 1    
   110   56  122 1    
   111   56  123 1    
   112   56  124 1    
   113   57   58 2    
   114   57   59 am   BACKBONE|DICT|INTERRES
   115   59   60 1    
   116   59  125 1    
   117   60   61 1    
   118   60   62 1    
   119   60  126 1    
   120   61  127 1    
   121   61  128 1    
   122   61  129 1    
   123   62   63 2    
   124   62   64 am   BACKBONE|DICT|INTERRES
   125   64   65 1    
   126   64  130 1    
   127   65   66 1    
   128   65   69 1    
   129   65  131 1    
   130   66   67 am   BACKBONE|DICT|INTERRES
   131   66   68 2    
   132   67  132 1    
   133   67  133 1    
   134   69   70 1    
   135   69  134 1    
   136   69  135 1    
   137   70   71 1    
   138   71  136 1    
   139   71  137 1    
@<TRIPOS>SUBSTRUCTURE
     1 UNK         1 GROUP             0       ****    0 ROOT    
