@<TRIPOS>MOLECULE
3R136
137   139    1
SMALL
USER_CHARGES


@<TRIPOS>ATOM
      1 CA         31.3604   27.8606   -2.4045 C.3       0 UNK        -0.1979 
      2 C          30.7358   26.4843   -2.2232 C.2       0 UNK         0.4864 
      3 O          30.3381   25.8660   -3.2116 O.2       0 UNK        -0.5359 
      4 N          30.6563   26.0063   -0.9726 N.am      1 UNK        -0.4318 
      5 CA         30.0641   24.7299   -0.5552 C.3       1 UNK         0.0824 
      6 C6         30.8839   23.5146   -1.0790 C.3       12 UNK        -0.0944 
      7 S7         30.4167   21.9092   -0.3469 S.3       12 UNK        -0.2672 
      8 C8         31.5500   21.7812    1.0712 C.3       12 UNK         0.0333 
      9 C9         31.0702   22.5729    2.2816 C.ar      12 UNK        -0.0807 
     10 C10        31.8879   23.5507    2.8566 C.ar      12 UNK        -0.0894 
     11 C11        31.5011   24.2148    4.0261 C.ar      12 UNK        -0.0804 
     12 C12        30.2680   23.8930    4.6109 C.ar      12 UNK        -0.0824 
     13 C13        29.4255   22.9389    4.0297 C.ar      12 UNK        -0.0762 
     14 C14        29.8355   22.2796    2.8685 C.ar      12 UNK        -0.0782 
     15 C15        28.0864   22.5931    4.6715 C.3       12 UNK         0.0230 
     16 S16        26.6963   23.4916    3.9042 S.3       12 UNK        -0.2608 
     17 C17        27.0793   25.2076    4.3827 C.3       12 UNK        -0.0989 
     18 CA         27.7616   25.9705    3.2144 C.3       5 UNK         0.0716 
     19 N          26.8258   26.3930    2.1662 N.am      5 UNK        -0.4135 
     20 C          25.8655   27.3241    2.2735 C.2       4 UNK         0.5031 
     21 O          25.6128   27.9548    3.3005 O.2       4 UNK        -0.5229 
     22 CA         25.0291   27.5940    1.0135 C.3       4 UNK         0.0329 
     23 CB         25.7792   28.5291    0.0496 C.3       4 UNK        -0.2001 
     24 N          24.6494   26.3647    0.3156 N.am      4 UNK        -0.4303 
     25 C          23.7578   25.4701    0.7711 C.2       3 UNK         0.5044 
     26 O          23.1420   25.5989    1.8298 O.2       3 UNK        -0.5152 
     27 CA         23.4754   24.2359   -0.1081 C.3       3 UNK         0.0319 
     28 CB         22.1021   24.3633   -0.7887 C.3       3 UNK        -0.2001 
     29 N          24.4966   24.0267   -1.1369 N.am      3 UNK        -0.4354 
     30 C          25.6915   23.4645   -0.9153 C.2       2 UNK         0.4964 
     31 O          26.0101   22.9422    0.1541 O.2       2 UNK        -0.5047 
     32 CA         26.7037   23.4950   -2.0792 C.3       2 UNK         0.0288 
     33 CB         26.3613   24.5221   -3.1842 C.3       2 UNK        -0.2113 
     34 N          28.0792   23.7059   -1.6159 N.am      2 UNK        -0.4145 
     35 C          28.5492   24.7195   -0.8725 C.2       1 UNK         0.5006 
     36 O          27.8466   25.6348   -0.4310 O.2       1 UNK        -0.5103 
     37 C          28.6355   27.1487    3.6867 C.2       5 UNK         0.5055 
     38 O          28.5348   27.5933    4.8322 O.2       5 UNK        -0.5220 
     39 N          29.4765   27.6323    2.7701 N.am      6 UNK        -0.4450 
     40 CA         30.4880   28.6530    2.9990 C.3       6 UNK         0.0367 
     41 CB         29.8881   30.0438    2.7337 C.3       6 UNK        -0.1929 
     42 C          31.6593   28.3791    2.0540 C.2       6 UNK         0.5070 
     43 O          31.4745   27.6990    1.0430 O.2       6 UNK        -0.5237 
     44 N          32.8248   28.9435    2.3757 N.am      7 UNK        -0.4739 
     45 CA         33.9803   29.0296    1.4838 C.3       7 UNK         0.0276 
     46 CB         35.2663   28.7523    2.2801 C.3       7 UNK        -0.1927 
     47 C          34.0214   30.4232    0.8384 C.2       7 UNK         0.5013 
     48 O          34.2086   30.5271   -0.3738 O.2       7 UNK        -0.5193 
     49 N          33.8024   31.4609    1.6564 N.am      8 UNK        -0.4253 
     50 CA         33.6843   32.8599    1.2606 C.3       8 UNK         0.0242 
     51 CB         35.0789   33.4751    1.0305 C.3       8 UNK        -0.2000 
     52 C          32.9158   33.5625    2.3830 C.2       8 UNK         0.4948 
     53 O          33.5181   33.9080    3.4006 O.2       8 UNK        -0.5275 
     54 N          31.5869   33.6647    2.2307 N.am      9 UNK        -0.4246 
     55 CA         30.5846   34.1614    3.1950 C.3       9 UNK         0.0261 
     56 CB         30.8566   35.6216    3.6075 C.3       9 UNK        -0.1959 
     57 C          30.3844   33.2604    4.4320 C.2       9 UNK         0.5033 
     58 O          29.2446   33.0595    4.8522 O.2       9 UNK        -0.5390 
     59 N          31.4770   32.7029    4.9572 N.am      10 UNK        -0.4215 
     60 CA         31.5343   31.6425    5.9583 C.3       10 UNK         0.0240 
     61 CB         31.9310   32.2540    7.3136 C.3       10 UNK        -0.1982 
     62 C          32.5592   30.5975    5.4909 C.2       10 UNK         0.4970 
     63 O          33.2181   30.7986    4.4656 O.2       10 UNK        -0.4916 
     64 N          32.6743   29.4876    6.2279 N.am      11 UNK        -0.4279 
     65 CA         33.6823   28.4382    5.9837 C.3       11 UNK         0.1003 
     66 C          35.1321   28.8258    6.4029 C.2       11 UNK         0.5709 
     67 N          35.3510   29.9163    7.1281 N.am      11 UNK        -0.7358 
     68 O          36.0784   28.1268    6.0499 O.2       11 UNK        -0.4999 
     69 C69        33.2671   27.0802    6.6046 C.3       12 UNK        -0.0954 
     70 S70        31.7592   26.3899    5.8462 S.3       12 UNK        -0.2268 
     71 C71        32.4823   25.2065    4.6567 C.3       12 UNK         0.0203 
     72 H72        30.5922   28.5892   -2.6615 H         1 UNK         0.0888 
     73 H73        31.8676   28.2032   -1.5031 H         1 UNK         0.0888 
     74 H74        32.0931   27.8381   -3.2107 H         1 UNK         0.0888 
     75 H75        30.9903   26.5994   -0.2111 H         1 UNK         0.3017 
     76 H76        30.1318   24.7224    0.5335 H         1 UNK         0.0873 
     77 H77        30.8038   23.4308   -2.1641 H         1 UNK         0.0745 
     78 H78        31.9443   23.6818   -0.8840 H         1 UNK         0.0745 
     79 H79        31.6252   20.7311    1.3567 H         1 UNK         0.0705 
     80 H80        32.5538   22.0837    0.7692 H         1 UNK         0.0705 
     81 H81        32.8498   23.7705    2.4131 H         1 UNK         0.1334 
     82 H82        29.9594   24.3731    5.5283 H         1 UNK         0.1417 
     83 H83        29.1978   21.5251    2.4272 H         1 UNK         0.1562 
     84 H84        28.1085   22.8001    5.7426 H         1 UNK         0.0748 
     85 H85        27.9032   21.5216    4.5776 H         1 UNK         0.0748 
     86 H86        27.7111   25.1818    5.2718 H         1 UNK         0.0940 
     87 H87        26.1610   25.7055    4.6965 H         1 UNK         0.0940 
     88 H88        28.4541   25.2827    2.7263 H         1 UNK         0.0703 
     89 H89        26.9818   25.9799    1.2502 H         1 UNK         0.3081 
     90 H90        24.1125   28.0991    1.3262 H         1 UNK         0.0719 
     91 H91        26.6973   28.0771   -0.3273 H         1 UNK         0.0809 
     92 H92        25.1600   28.7943   -0.8074 H         1 UNK         0.0809 
     93 H93        26.0563   29.4593    0.5477 H         1 UNK         0.0809 
     94 H94        25.1314   26.1651   -0.5484 H         1 UNK         0.2990 
     95 H95        23.4499   23.3641    0.5494 H         1 UNK         0.0690 
     96 H96        21.8633   23.4728   -1.3705 H         1 UNK         0.0788 
     97 H97        22.0595   25.2242   -1.4572 H         1 UNK         0.0788 
     98 H98        21.3098   24.4863   -0.0488 H         1 UNK         0.0788 
     99 H99        24.3071   24.4111   -2.0517 H         1 UNK         0.2993 
    100 H100       26.6794   22.5000   -2.5260 H         1 UNK         0.0949 
    101 H101       26.2933   25.5377   -2.7915 H         1 UNK         0.0767 
    102 H102       27.1261   24.5258   -3.9614 H         1 UNK         0.0767 
    103 H103       25.4174   24.2857   -3.6767 H         1 UNK         0.0767 
    104 H104       28.7358   22.9738   -1.8513 H         1 UNK         0.3013 
    105 H105       29.5300   27.2034    1.8549 H         1 UNK         0.3121 
    106 H106       30.8492   28.5916    4.0267 H         1 UNK         0.0774 
    107 H107       29.4527   30.1107    1.7359 H         1 UNK         0.0815 
    108 H108       30.6500   30.8190    2.8074 H         1 UNK         0.0815 
    109 H109       29.1080   30.2827    3.4569 H         1 UNK         0.0815 
    110 H110       32.8794   29.5091    3.2183 H         1 UNK         0.2987 
    111 H111       33.9045   28.2872    0.6858 H         1 UNK         0.0949 
    112 H112       35.4085   29.4674    3.0915 H         1 UNK         0.0806 
    113 H113       35.2524   27.7532    2.7161 H         1 UNK         0.0806 
    114 H114       36.1437   28.8121    1.6348 H         1 UNK         0.0806 
    115 H115       33.6692   31.2836    2.6489 H         1 UNK         0.3010 
    116 H116       33.1089   32.9320    0.3350 H         1 UNK         0.0829 
    117 H117       35.0021   34.5384    0.8003 H         1 UNK         0.0813 
    118 H118       35.7155   33.3754    1.9106 H         1 UNK         0.0813 
    119 H119       35.5904   32.9987    0.1941 H         1 UNK         0.0813 
    120 H120       31.1940   33.3090    1.3695 H         1 UNK         0.3038 
    121 H121       29.6363   34.1516    2.6548 H         1 UNK         0.0769 
    122 H122       31.7734   35.7210    4.1892 H         1 UNK         0.0811 
    123 H123       30.0429   36.0074    4.2230 H         1 UNK         0.0811 
    124 H124       30.9396   36.2712    2.7363 H         1 UNK         0.0811 
    125 H125       32.3691   32.9353    4.5223 H         1 UNK         0.3204 
    126 H126       30.5632   31.1498    6.0421 H         1 UNK         0.0748 
    127 H127       31.9494   31.5014    8.1025 H         1 UNK         0.0771 
    128 H128       32.9185   32.7160    7.2739 H         1 UNK         0.0771 
    129 H129       31.2191   33.0207    7.6204 H         1 UNK         0.0771 
    130 H130       32.0957   29.3670    7.0463 H         1 UNK         0.2980 
    131 H131       33.7391   28.2814    4.9062 H         1 UNK         0.0545 
    132 H132       34.5867   30.4989    7.4266 H         1 UNK         0.3459 
    133 H133       36.2964   30.1539    7.3837 H         1 UNK         0.3459 
    134 H134       33.0905   27.1930    7.6755 H         1 UNK         0.0616 
    135 H135       34.0689   26.3453    6.5125 H         1 UNK         0.0616 
    136 H136       32.9795   25.7800    3.8724 H         1 UNK         0.0634 
    137 H137       33.2564   24.6267    5.1609 H         1 UNK         0.0634 
@<TRIPOS>BOND
     1    1    2 1    
     2    1   72 1    
     3    1   73 1    
     4    1   74 1    
     5    2    3 2    
     6    2    4 am   BACKBONE|DICT|INTERRES
     7    4    5 1    
     8    4   75 1    
     9    5    6 1    
    10    5   35 1    
    11    5   76 1    
    12    6    7 1    
    13    6   77 1    
    14    6   78 1    
    15    7    8 1    
    16    8    9 1    
    17    8   79 1    
    18    8   80 1    
    19    9   10 ar   
    20    9   14 ar   
    21   10   11 ar   
    22   10   81 1    
    23   11   12 ar   
    24   11   71 1    
    25   12   13 ar   
    26   12   82 1    
    27   13   14 ar   
    28   13   15 1    
    29   14   83 1    
    30   15   16 1    
    31   15   84 1    
    32   15   85 1    
    33   16   17 1    
    34   17   18 1    
    35   17   86 1    
    36   17   87 1    
    37   18   19 1    
    38   18   37 1    
    39   18   88 1    
    40   19   20 am   BACKBONE|DICT|INTERRES
    41   19   89 1    
    42   20   21 2    
    43   20   22 1    
    44   22   23 1    
    45   22   24 1    
    46   22   90 1    
    47   23   91 1    
    48   23   92 1    
    49   23   93 1    
    50   24   25 am   BACKBONE|DICT|INTERRES
    51   24   94 1    
    52   25   26 2    
    53   25   27 1    
    54   27   28 1    
    55   27   29 1    
    56   27   95 1    
    57   28   96 1    
    58   28   97 1    
    59   28   98 1    
    60   29   30 am   BACKBONE|DICT|INTERRES
    61   29   99 1    
    62   30   31 2    
    63   30   32 1    
    64   32   33 1    
    65   32   34 1    
    66   32  100 1    
    67   33  101 1    
    68   33  102 1    
    69   33  103 1    
    70   34   35 am   BACKBONE|DICT|INTERRES
    71   34  104 1    
    72   35   36 2    
    73   37   38 2    
    74   37   39 am   BACKBONE|DICT|INTERRES
    75   39   40 1    
    76   39  105 1    
    77   40   41 1    
    78   40   42 1    
    79   40  106 1    
    80   41  107 1    
    81   41  108 1    
    82   41  109 1    
    83   42   43 2    
    84   42   44 am   BACKBONE|DICT|INTERRES
    85   44   45 1    
    86   44  110 1    
    87   45   46 1    
    88   45   47 1    
    89   45  111 1    
    90   46  112 1    
    91   46  113 1    
    92   46  114 1    
    93   47   48 2    
    94   47   49 am   BACKBONE|DICT|INTERRES
    95   49   50 1    
    96   49  115 1    
    97   50   51 1    
    98   50   52 1    
    99   50  116 1    
   100   51  117 1    
   101   51  118 1    
   102   51  119 1    
   103   52   53 2    
   104   52   54 am   BACKBONE|DICT|INTERRES
   105   54   55 1    
   106   54  120 1    
   107   55   56 1    
   108   55   57 1    
   109   55  121 1    
   110   56  122 1    
   111   56  123 1    
   112   56  124 1    
   113   57   58 2    
   114   57   59 am   BACKBONE|DICT|INTERRES
   115   59   60 1    
   116   59  125 1    
   117   60   61 1    
   118   60   62 1    
   119   60  126 1    
   120   61  127 1    
   121   61  128 1    
   122   61  129 1    
   123   62   63 2    
   124   62   64 am   BACKBONE|DICT|INTERRES
   125   64   65 1    
   126   64  130 1    
   127   65   66 1    
   128   65   69 1    
   129   65  131 1    
   130   66   67 am   BACKBONE|DICT|INTERRES
   131   66   68 2    
   132   67  132 1    
   133   67  133 1    
   134   69   70 1    
   135   69  134 1    
   136   69  135 1    
   137   70   71 1    
   138   71  136 1    
   139   71  137 1    
@<TRIPOS>SUBSTRUCTURE
     1 UNK         1 GROUP             0       ****    0 ROOT    
