@<TRIPOS>MOLECULE
3R136
137   139    1
SMALL
USER_CHARGES


@<TRIPOS>ATOM
      1 CA         33.9664   25.1316    0.4030 C.3       0 UNK        -0.1979 
      2 C          32.4654   24.8846    0.4120 C.2       0 UNK         0.4864 
      3 O          31.6959   25.7987    0.1142 O.2       0 UNK        -0.5359 
      4 N          32.0448   23.6642    0.7695 N.am      1 UNK        -0.4318 
      5 CA         30.6382   23.2510    0.8333 C.3       1 UNK         0.0824 
      6 C6         30.4366   21.9529    1.6590 C.3       12 UNK        -0.0944 
      7 S7         31.2360   21.9833    3.3027 S.3       12 UNK        -0.2672 
      8 C8         29.8817   22.5309    4.4047 C.3       12 UNK         0.0333 
      9 C9         29.5614   24.0289    4.3844 C.ar      12 UNK        -0.0807 
     10 C10        30.4224   24.9811    3.8226 C.ar      12 UNK        -0.0894 
     11 C11        30.0861   26.3362    3.8083 C.ar      12 UNK        -0.0804 
     12 C12        28.8990   26.7516    4.4178 C.ar      12 UNK        -0.0824 
     13 C13        28.0407   25.8238    5.0121 C.ar      12 UNK        -0.0762 
     14 C14        28.3719   24.4652    4.9793 C.ar      12 UNK        -0.0782 
     15 C15        26.7729   26.2901    5.7160 C.3       12 UNK         0.0230 
     16 S16        25.3690   26.4751    4.5700 S.3       12 UNK        -0.2608 
     17 C17        25.7539   28.0560    3.7409 C.3       12 UNK        -0.0989 
     18 CA         26.1690   27.8446    2.2646 C.3       5 UNK         0.0716 
     19 N          25.0568   27.3243    1.4668 N.am      5 UNK        -0.4135 
     20 C          25.1728   26.8010    0.2426 C.2       4 UNK         0.5031 
     21 O          26.2451   26.6649   -0.3536 O.2       4 UNK        -0.5229 
     22 CA         23.8691   26.3632   -0.4352 C.3       4 UNK         0.0329 
     23 CB         23.2264   27.5298   -1.2040 C.3       4 UNK        -0.2001 
     24 N          24.1905   25.2857   -1.3626 N.am      4 UNK        -0.4303 
     25 C          23.4941   24.1564   -1.5289 C.2       3 UNK         0.5044 
     26 O          22.3922   23.9493   -1.0185 O.2       3 UNK        -0.5152 
     27 CA         24.1353   23.0582   -2.4032 C.3       3 UNK         0.0319 
     28 CB         23.4855   23.0351   -3.7965 C.3       3 UNK        -0.2001 
     29 N          25.5921   23.1768   -2.5561 N.am      3 UNK        -0.4354 
     30 C          26.4845   23.0725   -1.5609 C.2       2 UNK         0.4964 
     31 O          26.1774   22.8325   -0.3898 O.2       2 UNK        -0.5047 
     32 CA         27.9596   23.2880   -1.9331 C.3       2 UNK         0.0288 
     33 CB         28.1801   24.5621   -2.7774 C.3       2 UNK        -0.2113 
     34 N          28.7408   23.3710   -0.7025 N.am      2 UNK        -0.4145 
     35 C          30.0423   23.0958   -0.5804 C.2       1 UNK         0.5006 
     36 O          30.7534   22.7095   -1.5131 O.2       1 UNK        -0.5103 
     37 C          26.6938   29.1566    1.6496 C.2       5 UNK         0.5055 
     38 O          25.9021   30.0753    1.4251 O.2       5 UNK        -0.5220 
     39 N          28.0089   29.2240    1.3985 N.am      6 UNK        -0.4450 
     40 CA         28.6736   30.3904    0.8059 C.3       6 UNK         0.0367 
     41 CB         30.0604   29.9847    0.2786 C.3       6 UNK        -0.1929 
     42 C          28.8005   31.5816    1.7719 C.2       6 UNK         0.5070 
     43 O          28.7950   32.7228    1.3103 O.2       6 UNK        -0.5237 
     44 N          28.9192   31.2912    3.0784 N.am      7 UNK        -0.4739 
     45 CA         29.1155   32.2360    4.1883 C.3       7 UNK         0.0276 
     46 CB         27.8416   33.0770    4.4170 C.3       7 UNK        -0.1927 
     47 C          30.3852   33.0939    4.0078 C.2       7 UNK         0.5013 
     48 O          30.3240   34.3235    4.0760 O.2       7 UNK        -0.5193 
     49 N          31.5085   32.4156    3.7519 N.am      8 UNK        -0.4253 
     50 CA         32.8217   32.9990    3.4871 C.3       8 UNK         0.0242 
     51 CB         33.0951   32.9119    1.9738 C.3       8 UNK        -0.2000 
     52 C          33.8884   32.2375    4.2845 C.2       8 UNK         0.4948 
     53 O          33.5850   31.2065    4.8880 O.2       8 UNK        -0.5275 
     54 N          35.1372   32.7243    4.2376 N.am      9 UNK        -0.4246 
     55 CA         36.3053   32.1220    4.8999 C.3       9 UNK         0.0261 
     56 CB         37.5433   32.9973    4.6468 C.3       9 UNK        -0.1959 
     57 C          36.5873   30.6614    4.4935 C.2       9 UNK         0.5033 
     58 O          37.1164   29.8991    5.3040 O.2       9 UNK        -0.5390 
     59 N          36.1789   30.2841    3.2727 N.am      10 UNK        -0.4215 
     60 CA         36.1995   28.9161    2.7463 C.3       10 UNK         0.0240 
     61 CB         35.7482   28.9395    1.2763 C.3       10 UNK        -0.1982 
     62 C          35.3438   27.9155    3.5489 C.2       10 UNK         0.4970 
     63 O          35.6087   26.7155    3.4705 O.2       10 UNK        -0.4916 
     64 N          34.3513   28.4091    4.3024 N.am      11 UNK        -0.4279 
     65 CA         33.5230   27.6102    5.2161 C.3       11 UNK         0.1003 
     66 C          34.2382   27.2252    6.5446 C.2       11 UNK         0.5709 
     67 N          35.4172   27.7562    6.8538 N.am      11 UNK        -0.7358 
     68 O          33.7161   26.4172    7.3087 O.2       11 UNK        -0.4999 
     69 C69        32.1496   28.2809    5.4977 C.3       12 UNK        -0.0954 
     70 S70        31.2686   28.8745    4.0114 S.3       12 UNK        -0.2268 
     71 C71        30.9951   27.3276    3.0917 C.3       12 UNK         0.0203 
     72 H72        34.2866   25.4669   -0.5829 H         1 UNK         0.0888 
     73 H73        34.2201   25.9055    1.1264 H         1 UNK         0.0888 
     74 H74        34.5295   24.2339    0.6565 H         1 UNK         0.0888 
     75 H75        32.7181   22.9451    0.9907 H         1 UNK         0.3017 
     76 H76        30.0839   24.0528    1.3232 H         1 UNK         0.0873 
     77 H77        29.3729   21.7424    1.7853 H         1 UNK         0.0745 
     78 H78        30.8478   21.0970    1.1199 H         1 UNK         0.0745 
     79 H79        30.1555   22.2624    5.4258 H         1 UNK         0.0705 
     80 H80        28.9836   21.9576    4.1697 H         1 UNK         0.0705 
     81 H81        31.3546   24.6751    3.3714 H         1 UNK         0.1334 
     82 H82        28.6484   27.8014    4.4356 H         1 UNK         0.1417 
     83 H83        27.7056   23.7441    5.4338 H         1 UNK         0.1562 
     84 H84        26.9530   27.2303    6.2397 H         1 UNK         0.0748 
     85 H85        26.4945   25.5706    6.4875 H         1 UNK         0.0748 
     86 H86        26.5279   28.5829    4.3000 H         1 UNK         0.0940 
     87 H87        24.8715   28.6965    3.8007 H         1 UNK         0.0940 
     88 H88        26.9721   27.1045    2.2354 H         1 UNK         0.0703 
     89 H89        24.1389   27.4180    1.8757 H         1 UNK         0.3081 
     90 H90        23.1801   26.0058    0.3335 H         1 UNK         0.0719 
     91 H91        23.8945   27.9227   -1.9717 H         1 UNK         0.0809 
     92 H92        22.3021   27.2197   -1.6918 H         1 UNK         0.0809 
     93 H93        22.9792   28.3534   -0.5329 H         1 UNK         0.0809 
     94 H94        25.1175   25.3482   -1.7631 H         1 UNK         0.2990 
     95 H95        23.9320   22.1021   -1.9161 H         1 UNK         0.0690 
     96 H96        23.8598   22.2055   -4.3967 H         1 UNK         0.0788 
     97 H97        23.6723   23.9597   -4.3443 H         1 UNK         0.0788 
     98 H98        22.4037   22.9145   -3.7212 H         1 UNK         0.0788 
     99 H99        25.9296   23.3722   -3.4878 H         1 UNK         0.2993 
    100 H100       28.2818   22.4135   -2.5027 H         1 UNK         0.0949 
    101 H101       27.8159   25.4522   -2.2628 H         1 UNK         0.0767 
    102 H102       29.2378   24.7166   -2.9919 H         1 UNK         0.0767 
    103 H103       27.6710   24.5036   -3.7396 H         1 UNK         0.0767 
    104 H104       28.1901   23.5954    0.1172 H         1 UNK         0.3013 
    105 H105       28.5831   28.4127    1.5733 H         1 UNK         0.3121 
    106 H106       28.0745   30.7206   -0.0459 H         1 UNK         0.0774 
    107 H107       30.7402   29.7095    1.0847 H         1 UNK         0.0815 
    108 H108       30.5243   30.8120   -0.2604 H         1 UNK         0.0815 
    109 H109       29.9972   29.1445   -0.4132 H         1 UNK         0.0815 
    110 H110       28.9416   30.3142    3.3315 H         1 UNK         0.2987 
    111 H111       29.2784   31.6359    5.0853 H         1 UNK         0.0949 
    112 H112       26.9702   32.4414    4.5743 H         1 UNK         0.0806 
    113 H113       27.9450   33.7097    5.2993 H         1 UNK         0.0806 
    114 H114       27.6298   33.7318    3.5712 H         1 UNK         0.0806 
    115 H115       31.4958   31.4045    3.8082 H         1 UNK         0.3010 
    116 H116       32.8474   34.0431    3.8064 H         1 UNK         0.0829 
    117 H117       34.0449   33.3778    1.7093 H         1 UNK         0.0813 
    118 H118       33.1274   31.8773    1.6288 H         1 UNK         0.0813 
    119 H119       32.3188   33.4248    1.4051 H         1 UNK         0.0813 
    120 H120       35.3048   33.5757    3.7200 H         1 UNK         0.3038 
    121 H121       36.1021   32.1200    5.9729 H         1 UNK         0.0769 
    122 H122       37.7785   33.0681    3.5840 H         1 UNK         0.0811 
    123 H123       38.4210   32.5860    5.1477 H         1 UNK         0.0811 
    124 H124       37.4007   34.0084    5.0288 H         1 UNK         0.0811 
    125 H125       35.7612   30.9876    2.6821 H         1 UNK         0.3204 
    126 H126       37.2324   28.5642    2.7860 H         1 UNK         0.0748 
    127 H127       35.7983   27.9424    0.8365 H         1 UNK         0.0771 
    128 H128       34.7194   29.2885    1.1752 H         1 UNK         0.0771 
    129 H129       36.3853   29.5873    0.6739 H         1 UNK         0.0771 
    130 H130       34.1889   29.4105    4.3404 H         1 UNK         0.2980 
    131 H131       33.3186   26.6594    4.7219 H         1 UNK         0.0545 
    132 H132       35.8679   28.4231    6.2395 H         1 UNK         0.3459 
    133 H133       35.8641   27.4890    7.7161 H         1 UNK         0.3459 
    134 H134       32.2812   29.1407    6.1569 H         1 UNK         0.0616 
    135 H135       31.4926   27.5914    6.0308 H         1 UNK         0.0616 
    136 H136       30.5438   27.5664    2.1295 H         1 UNK         0.0634 
    137 H137       31.9618   26.8795    2.8602 H         1 UNK         0.0634 
@<TRIPOS>BOND
     1    1    2 1    
     2    1   72 1    
     3    1   73 1    
     4    1   74 1    
     5    2    3 2    
     6    2    4 am   BACKBONE|DICT|INTERRES
     7    4    5 1    
     8    4   75 1    
     9    5    6 1    
    10    5   35 1    
    11    5   76 1    
    12    6    7 1    
    13    6   77 1    
    14    6   78 1    
    15    7    8 1    
    16    8    9 1    
    17    8   79 1    
    18    8   80 1    
    19    9   10 ar   
    20    9   14 ar   
    21   10   11 ar   
    22   10   81 1    
    23   11   12 ar   
    24   11   71 1    
    25   12   13 ar   
    26   12   82 1    
    27   13   14 ar   
    28   13   15 1    
    29   14   83 1    
    30   15   16 1    
    31   15   84 1    
    32   15   85 1    
    33   16   17 1    
    34   17   18 1    
    35   17   86 1    
    36   17   87 1    
    37   18   19 1    
    38   18   37 1    
    39   18   88 1    
    40   19   20 am   BACKBONE|DICT|INTERRES
    41   19   89 1    
    42   20   21 2    
    43   20   22 1    
    44   22   23 1    
    45   22   24 1    
    46   22   90 1    
    47   23   91 1    
    48   23   92 1    
    49   23   93 1    
    50   24   25 am   BACKBONE|DICT|INTERRES
    51   24   94 1    
    52   25   26 2    
    53   25   27 1    
    54   27   28 1    
    55   27   29 1    
    56   27   95 1    
    57   28   96 1    
    58   28   97 1    
    59   28   98 1    
    60   29   30 am   BACKBONE|DICT|INTERRES
    61   29   99 1    
    62   30   31 2    
    63   30   32 1    
    64   32   33 1    
    65   32   34 1    
    66   32  100 1    
    67   33  101 1    
    68   33  102 1    
    69   33  103 1    
    70   34   35 am   BACKBONE|DICT|INTERRES
    71   34  104 1    
    72   35   36 2    
    73   37   38 2    
    74   37   39 am   BACKBONE|DICT|INTERRES
    75   39   40 1    
    76   39  105 1    
    77   40   41 1    
    78   40   42 1    
    79   40  106 1    
    80   41  107 1    
    81   41  108 1    
    82   41  109 1    
    83   42   43 2    
    84   42   44 am   BACKBONE|DICT|INTERRES
    85   44   45 1    
    86   44  110 1    
    87   45   46 1    
    88   45   47 1    
    89   45  111 1    
    90   46  112 1    
    91   46  113 1    
    92   46  114 1    
    93   47   48 2    
    94   47   49 am   BACKBONE|DICT|INTERRES
    95   49   50 1    
    96   49  115 1    
    97   50   51 1    
    98   50   52 1    
    99   50  116 1    
   100   51  117 1    
   101   51  118 1    
   102   51  119 1    
   103   52   53 2    
   104   52   54 am   BACKBONE|DICT|INTERRES
   105   54   55 1    
   106   54  120 1    
   107   55   56 1    
   108   55   57 1    
   109   55  121 1    
   110   56  122 1    
   111   56  123 1    
   112   56  124 1    
   113   57   58 2    
   114   57   59 am   BACKBONE|DICT|INTERRES
   115   59   60 1    
   116   59  125 1    
   117   60   61 1    
   118   60   62 1    
   119   60  126 1    
   120   61  127 1    
   121   61  128 1    
   122   61  129 1    
   123   62   63 2    
   124   62   64 am   BACKBONE|DICT|INTERRES
   125   64   65 1    
   126   64  130 1    
   127   65   66 1    
   128   65   69 1    
   129   65  131 1    
   130   66   67 am   BACKBONE|DICT|INTERRES
   131   66   68 2    
   132   67  132 1    
   133   67  133 1    
   134   69   70 1    
   135   69  134 1    
   136   69  135 1    
   137   70   71 1    
   138   71  136 1    
   139   71  137 1    
@<TRIPOS>SUBSTRUCTURE
     1 UNK         1 GROUP             0       ****    0 ROOT    
