@<TRIPOS>MOLECULE
3R136
137   139    1
SMALL
USER_CHARGES


@<TRIPOS>ATOM
      1 CA         26.0434   21.5374   -1.7774 C.3       0 UNK        -0.1979 
      2 C          26.8970   20.6407   -0.8845 C.2       0 UNK         0.4864 
      3 O          26.5756   19.4615   -0.7434 O.2       0 UNK        -0.5359 
      4 N          27.9927   21.1192   -0.2781 N.am      1 UNK        -0.4318 
      5 CA         28.4938   22.4963   -0.2374 C.3       1 UNK         0.0824 
      6 C6         30.0476   22.5259   -0.1496 C.3       12 UNK        -0.0944 
      7 S7         30.7551   21.5258    1.2141 S.3       12 UNK        -0.2672 
      8 C8         32.3727   22.3181    1.4841 C.3       12 UNK         0.0333 
      9 C9         32.2371   23.7444    1.9977 C.ar      12 UNK        -0.0807 
     10 C10        31.8232   23.9883    3.3109 C.ar      12 UNK        -0.0894 
     11 C11        31.6902   25.2988    3.7820 C.ar      12 UNK        -0.0804 
     12 C12        31.9627   26.3675    2.9240 C.ar      12 UNK        -0.0824 
     13 C13        32.3987   26.1354    1.6164 C.ar      12 UNK        -0.0762 
     14 C14        32.5396   24.8221    1.1610 C.ar      12 UNK        -0.0782 
     15 C15        32.7287   27.3052    0.7007 C.3       12 UNK         0.0230 
     16 S16        31.6920   27.3407   -0.7962 S.3       12 UNK        -0.2608 
     17 C17        30.0186   27.2832   -0.0766 C.3       12 UNK        -0.0989 
     18 CA         28.9344   27.7984   -1.0531 C.3       5 UNK         0.0716 
     19 N          27.6253   27.2388   -0.7182 N.am      5 UNK        -0.4135 
     20 C          26.5749   27.2087   -1.5511 C.2       4 UNK         0.5031 
     21 O          26.6140   27.6358   -2.7064 O.2       4 UNK        -0.5229 
     22 CA         25.2675   26.5669   -1.0469 C.3       4 UNK         0.0329 
     23 CB         25.0216   25.2298   -1.7645 C.3       4 UNK        -0.2001 
     24 N          25.2522   26.3457    0.4014 N.am      4 UNK        -0.4303 
     25 C          24.9884   27.3039    1.3028 C.2       3 UNK         0.5044 
     26 O          24.6536   28.4489    0.9981 O.2       3 UNK        -0.5152 
     27 CA         25.1230   26.9450    2.7963 C.3       3 UNK         0.0319 
     28 CB         23.7370   26.6962    3.4130 C.3       3 UNK        -0.2001 
     29 N          25.9847   25.7939    3.0849 N.am      3 UNK        -0.4354 
     30 C          27.2806   25.6810    2.7626 C.2       2 UNK         0.4964 
     31 O          27.9097   26.5431    2.1513 O.2       2 UNK        -0.5047 
     32 CA         27.9920   24.3676    3.1324 C.3       2 UNK         0.0288 
     33 CB         27.1549   23.4139    4.0149 C.3       2 UNK        -0.2113 
     34 N          28.4765   23.6592    1.9432 N.am      2 UNK        -0.4145 
     35 C          27.7607   23.2860    0.8715 C.2       1 UNK         0.5006 
     36 O          26.5627   23.5428    0.7326 O.2       1 UNK        -0.5103 
     37 C          28.8920   29.3391   -1.0799 C.2       5 UNK         0.5055 
     38 O          28.1459   29.9529   -0.3142 O.2       5 UNK        -0.5220 
     39 N          29.7456   29.9410   -1.9186 N.am      6 UNK        -0.4450 
     40 CA         29.9502   31.3918   -1.9912 C.3       6 UNK         0.0367 
     41 CB         30.7573   31.7263   -3.2559 C.3       6 UNK        -0.1929 
     42 C          30.6451   31.9702   -0.7432 C.2       6 UNK         0.5070 
     43 O          30.4678   33.1522   -0.4494 O.2       6 UNK        -0.5237 
     44 N          31.4103   31.1308   -0.0328 N.am      7 UNK        -0.4739 
     45 CA         32.1389   31.4689    1.1915 C.3       7 UNK         0.0276 
     46 CB         33.6446   31.2501    0.9508 C.3       7 UNK        -0.1927 
     47 C          31.6064   30.6641    2.3909 C.2       7 UNK         0.5013 
     48 O          32.3862   30.2896    3.2702 O.2       7 UNK        -0.5193 
     49 N          30.2883   30.4072    2.4115 N.am      8 UNK        -0.4253 
     50 CA         29.5706   29.6373    3.4386 C.3       8 UNK         0.0242 
     51 CB         28.0670   29.6426    3.1227 C.3       8 UNK        -0.2000 
     52 C          29.7939   30.1285    4.8790 C.2       8 UNK         0.4948 
     53 O          29.8991   29.3082    5.7904 O.2       8 UNK        -0.5275 
     54 N          29.8727   31.4553    5.0496 N.am      9 UNK        -0.4246 
     55 CA         30.1217   32.1158    6.3320 C.3       9 UNK         0.0261 
     56 CB         29.7185   33.5955    6.2207 C.3       9 UNK        -0.1959 
     57 C          31.5776   31.9926    6.8175 C.2       9 UNK         0.5033 
     58 O          31.8123   32.1195    8.0203 O.2       9 UNK        -0.5390 
     59 N          32.5239   31.7707    5.8941 N.am      10 UNK        -0.4215 
     60 CA         33.9433   31.5955    6.1989 C.3       10 UNK         0.0240 
     61 CB         34.8019   32.1414    5.0454 C.3       10 UNK        -0.1982 
     62 C          34.2548   30.1200    6.4746 C.2       10 UNK         0.4970 
     63 O          34.8191   29.8132    7.5253 O.2       10 UNK        -0.4916 
     64 N          33.8691   29.2417    5.5361 N.am      11 UNK        -0.4279 
     65 CA         34.0502   27.7818    5.6113 C.3       11 UNK         0.1003 
     66 C          35.5395   27.3165    5.6900 C.2       11 UNK         0.5709 
     67 N          36.4778   28.0659    5.1219 N.am      11 UNK        -0.7358 
     68 O          35.8587   26.2709    6.2505 O.2       11 UNK        -0.4999 
     69 C69        33.1067   27.1537    6.6785 C.3       12 UNK        -0.0954 
     70 S70        32.6618   25.4107    6.3654 S.3       12 UNK        -0.2268 
     71 C71        31.2548   25.5515    5.2183 C.3       12 UNK         0.0203 
     72 H72        26.6496   22.1377   -2.4536 H         1 UNK         0.0888 
     73 H73        25.3804   20.9315   -2.3946 H         1 UNK         0.0888 
     74 H74        25.4186   22.1942   -1.1746 H         1 UNK         0.0888 
     75 H75        28.5248   20.4812    0.2972 H         1 UNK         0.3017 
     76 H76        28.2378   23.0003   -1.1695 H         1 UNK         0.0873 
     77 H77        30.4632   22.1373   -1.0807 H         1 UNK         0.0745 
     78 H78        30.3993   23.5567   -0.0913 H         1 UNK         0.0745 
     79 H79        32.9446   22.2893    0.5552 H         1 UNK         0.0705 
     80 H80        32.9371   21.7286    2.2080 H         1 UNK         0.0705 
     81 H81        31.6073   23.1565    3.9680 H         1 UNK         0.1334 
     82 H82        31.8564   27.3817    3.2819 H         1 UNK         0.1417 
     83 H83        32.8728   24.6436    0.1474 H         1 UNK         0.1562 
     84 H84        33.7770   27.2449    0.4056 H         1 UNK         0.0748 
     85 H85        32.6140   28.2484    1.2316 H         1 UNK         0.0748 
     86 H86        29.9930   27.8256    0.8710 H         1 UNK         0.0940 
     87 H87        29.8269   26.2393    0.1787 H         1 UNK         0.0940 
     88 H88        29.1788   27.4457   -2.0579 H         1 UNK         0.0703 
     89 H89        27.5089   26.9331    0.2427 H         1 UNK         0.3081 
     90 H90        24.4495   27.2423   -1.3067 H         1 UNK         0.0719 
     91 H91        25.8603   24.5467   -1.6342 H         1 UNK         0.0809 
     92 H92        24.1216   24.7361   -1.3976 H         1 UNK         0.0809 
     93 H93        24.8940   25.3818   -2.8370 H         1 UNK         0.0809 
     94 H94        25.5343   25.4262    0.7254 H         1 UNK         0.2990 
     95 H95        25.5633   27.8113    3.2923 H         1 UNK         0.0690 
     96 H96        23.2544   25.8196    2.9790 H         1 UNK         0.0788 
     97 H97        23.0759   27.5480    3.2464 H         1 UNK         0.0788 
     98 H98        23.8018   26.5468    4.4910 H         1 UNK         0.0788 
     99 H99        25.5482   25.0129    3.5530 H         1 UNK         0.2993 
    100 H100       28.8729   24.6598    3.7022 H         1 UNK         0.0949 
    101 H101       26.2641   23.0496    3.5015 H         1 UNK         0.0767 
    102 H102       27.7417   22.5420    4.3048 H         1 UNK         0.0767 
    103 H103       26.8379   23.9014    4.9380 H         1 UNK         0.0767 
    104 H104       29.4571   23.4073    1.9529 H         1 UNK         0.3013 
    105 H105       30.3374   29.3678   -2.5042 H         1 UNK         0.3121 
    106 H106       28.9713   31.8696   -2.0725 H         1 UNK         0.0774 
    107 H107       30.9015   32.8034   -3.3523 H         1 UNK         0.0815 
    108 H108       31.7462   31.2662   -3.2388 H         1 UNK         0.0815 
    109 H109       30.2437   31.3890   -4.1564 H         1 UNK         0.0815 
    110 H110       31.4838   30.1737   -0.3492 H         1 UNK         0.2987 
    111 H111       31.9926   32.5213    1.4437 H         1 UNK         0.0949 
    112 H112       33.8803   30.2046    0.7534 H         1 UNK         0.0806 
    113 H113       33.9957   31.8358    0.1011 H         1 UNK         0.0806 
    114 H114       34.2323   31.5609    1.8140 H         1 UNK         0.0806 
    115 H115       29.7311   30.7440    1.6376 H         1 UNK         0.3010 
    116 H116       29.9212   28.6060    3.3851 H         1 UNK         0.0829 
    117 H117       27.5116   29.0824    3.8758 H         1 UNK         0.0813 
    118 H118       27.6579   30.6532    3.0975 H         1 UNK         0.0813 
    119 H119       27.8590   29.1746    2.1617 H         1 UNK         0.0813 
    120 H120       29.7575   32.0505    4.2421 H         1 UNK         0.3038 
    121 H121       29.4863   31.6459    7.0862 H         1 UNK         0.0769 
    122 H122       29.8617   34.1112    7.1714 H         1 UNK         0.0811 
    123 H123       28.6670   33.7020    5.9529 H         1 UNK         0.0811 
    124 H124       30.3124   34.1222    5.4726 H         1 UNK         0.0811 
    125 H125       32.2405   31.5937    4.9384 H         1 UNK         0.3204 
    126 H126       34.1965   32.1670    7.0948 H         1 UNK         0.0748 
    127 H127       35.8642   32.0511    5.2763 H         1 UNK         0.0771 
    128 H128       34.6257   31.6052    4.1139 H         1 UNK         0.0771 
    129 H129       34.5985   33.1974    4.8668 H         1 UNK         0.0771 
    130 H130       33.4068   29.5892    4.6996 H         1 UNK         0.2980 
    131 H131       33.7243   27.4242    4.6385 H         1 UNK         0.0545 
    132 H132       37.4396   27.7688    5.1674 H         1 UNK         0.3459 
    133 H133       36.2349   28.9234    4.6531 H         1 UNK         0.3459 
    134 H134       33.5577   27.2224    7.6698 H         1 UNK         0.0616 
    135 H135       32.1779   27.7230    6.7437 H         1 UNK         0.0616 
    136 H136       30.7750   26.5271    5.3127 H         1 UNK         0.0634 
    137 H137       30.5031   24.8155    5.5064 H         1 UNK         0.0634 
@<TRIPOS>BOND
     1    1    2 1    
     2    1   72 1    
     3    1   73 1    
     4    1   74 1    
     5    2    3 2    
     6    2    4 am   BACKBONE|DICT|INTERRES
     7    4    5 1    
     8    4   75 1    
     9    5    6 1    
    10    5   35 1    
    11    5   76 1    
    12    6    7 1    
    13    6   77 1    
    14    6   78 1    
    15    7    8 1    
    16    8    9 1    
    17    8   79 1    
    18    8   80 1    
    19    9   10 ar   
    20    9   14 ar   
    21   10   11 ar   
    22   10   81 1    
    23   11   12 ar   
    24   11   71 1    
    25   12   13 ar   
    26   12   82 1    
    27   13   14 ar   
    28   13   15 1    
    29   14   83 1    
    30   15   16 1    
    31   15   84 1    
    32   15   85 1    
    33   16   17 1    
    34   17   18 1    
    35   17   86 1    
    36   17   87 1    
    37   18   19 1    
    38   18   37 1    
    39   18   88 1    
    40   19   20 am   BACKBONE|DICT|INTERRES
    41   19   89 1    
    42   20   21 2    
    43   20   22 1    
    44   22   23 1    
    45   22   24 1    
    46   22   90 1    
    47   23   91 1    
    48   23   92 1    
    49   23   93 1    
    50   24   25 am   BACKBONE|DICT|INTERRES
    51   24   94 1    
    52   25   26 2    
    53   25   27 1    
    54   27   28 1    
    55   27   29 1    
    56   27   95 1    
    57   28   96 1    
    58   28   97 1    
    59   28   98 1    
    60   29   30 am   BACKBONE|DICT|INTERRES
    61   29   99 1    
    62   30   31 2    
    63   30   32 1    
    64   32   33 1    
    65   32   34 1    
    66   32  100 1    
    67   33  101 1    
    68   33  102 1    
    69   33  103 1    
    70   34   35 am   BACKBONE|DICT|INTERRES
    71   34  104 1    
    72   35   36 2    
    73   37   38 2    
    74   37   39 am   BACKBONE|DICT|INTERRES
    75   39   40 1    
    76   39  105 1    
    77   40   41 1    
    78   40   42 1    
    79   40  106 1    
    80   41  107 1    
    81   41  108 1    
    82   41  109 1    
    83   42   43 2    
    84   42   44 am   BACKBONE|DICT|INTERRES
    85   44   45 1    
    86   44  110 1    
    87   45   46 1    
    88   45   47 1    
    89   45  111 1    
    90   46  112 1    
    91   46  113 1    
    92   46  114 1    
    93   47   48 2    
    94   47   49 am   BACKBONE|DICT|INTERRES
    95   49   50 1    
    96   49  115 1    
    97   50   51 1    
    98   50   52 1    
    99   50  116 1    
   100   51  117 1    
   101   51  118 1    
   102   51  119 1    
   103   52   53 2    
   104   52   54 am   BACKBONE|DICT|INTERRES
   105   54   55 1    
   106   54  120 1    
   107   55   56 1    
   108   55   57 1    
   109   55  121 1    
   110   56  122 1    
   111   56  123 1    
   112   56  124 1    
   113   57   58 2    
   114   57   59 am   BACKBONE|DICT|INTERRES
   115   59   60 1    
   116   59  125 1    
   117   60   61 1    
   118   60   62 1    
   119   60  126 1    
   120   61  127 1    
   121   61  128 1    
   122   61  129 1    
   123   62   63 2    
   124   62   64 am   BACKBONE|DICT|INTERRES
   125   64   65 1    
   126   64  130 1    
   127   65   66 1    
   128   65   69 1    
   129   65  131 1    
   130   66   67 am   BACKBONE|DICT|INTERRES
   131   66   68 2    
   132   67  132 1    
   133   67  133 1    
   134   69   70 1    
   135   69  134 1    
   136   69  135 1    
   137   70   71 1    
   138   71  136 1    
   139   71  137 1    
@<TRIPOS>SUBSTRUCTURE
     1 UNK         1 GROUP             0       ****    0 ROOT    
