@<TRIPOS>MOLECULE
3R136
137   139    1
SMALL
USER_CHARGES


@<TRIPOS>ATOM
      1 CA         27.7059   20.0665    0.0889 C.3       0 UNK        -0.1979 
      2 C          28.7825   21.0460   -0.3544 C.2       0 UNK         0.4864 
      3 O          29.9619   20.8231   -0.0785 O.2       0 UNK        -0.5359 
      4 N          28.3853   22.1241   -1.0377 N.am      1 UNK        -0.4318 
      5 CA         29.2548   23.1722   -1.5682 C.3       1 UNK         0.0824 
      6 C6         29.8516   24.0825   -0.4553 C.3       12 UNK        -0.0944 
      7 S7         31.5576   24.6038   -0.8296 S.3       12 UNK        -0.2672 
      8 C8         32.5131   23.5558    0.3128 C.3       12 UNK         0.0333 
      9 C9         32.3989   24.0251    1.7578 C.ar      12 UNK        -0.0807 
     10 C10        33.2004   25.0719    2.2195 C.ar      12 UNK        -0.0894 
     11 C11        33.1444   25.4897    3.5534 C.ar      12 UNK        -0.0804 
     12 C12        32.2404   24.8597    4.4237 C.ar      12 UNK        -0.0824 
     13 C13        31.4342   23.8069    3.9749 C.ar      12 UNK        -0.0762 
     14 C14        31.5241   23.3911    2.6438 C.ar      12 UNK        -0.0782 
     15 C15        30.5068   23.0692    4.9322 C.3       12 UNK         0.0230 
     16 S16        28.7586   23.5367    4.7131 S.3       12 UNK        -0.2608 
     17 C17        28.6500   25.0830    5.6766 C.3       12 UNK        -0.0989 
     18 CA         28.3405   26.3130    4.7899 C.3       5 UNK         0.0716 
     19 N          27.0669   26.1684    4.0638 N.am      5 UNK        -0.4135 
     20 C          26.6204   27.0035    3.1177 C.2       4 UNK         0.5031 
     21 O          27.1740   28.0679    2.8358 O.2       4 UNK        -0.5229 
     22 CA         25.3125   26.6284    2.4004 C.3       4 UNK         0.0329 
     23 CB         24.1078   27.2216    3.1484 C.3       4 UNK        -0.2001 
     24 N          25.3188   27.1336    1.0239 N.am      4 UNK        -0.4303 
     25 C          26.1518   26.6840    0.0775 C.2       3 UNK         0.5044 
     26 O          26.8560   25.6798    0.2163 O.2       3 UNK        -0.5152 
     27 CA         26.2393   27.5020   -1.2208 C.3       3 UNK         0.0319 
     28 CB         26.6269   28.9699   -0.9518 C.3       3 UNK        -0.2001 
     29 N          27.2535   26.8786   -2.0623 N.am      3 UNK        -0.4354 
     30 C          27.2966   26.8516   -3.3975 C.2       2 UNK         0.4964 
     31 O          26.4985   27.4492   -4.1203 O.2       2 UNK        -0.5047 
     32 CA         28.4232   26.0153   -4.0423 C.3       2 UNK         0.0288 
     33 CB         29.5098   26.9367   -4.6216 C.3       2 UNK        -0.2113 
     34 N          29.0552   25.0587   -3.1233 N.am      2 UNK        -0.4145 
     35 C          28.4621   23.9644   -2.6257 C.2       1 UNK         0.5006 
     36 O          27.3295   23.5948   -2.9527 O.2       1 UNK        -0.5103 
     37 C          28.4759   27.6168    5.6115 C.2       5 UNK         0.5055 
     38 O          29.5901   27.9521    6.0031 O.2       5 UNK        -0.5220 
     39 N          27.3721   28.3356    5.8586 N.am      6 UNK        -0.4450 
     40 CA         27.3829   29.6755    6.4508 C.3       6 UNK         0.0367 
     41 CB         25.9850   29.9879    7.0091 C.3       6 UNK        -0.1929 
     42 C          27.8182   30.7728    5.4582 C.2       6 UNK         0.5070 
     43 O          28.2982   31.8182    5.8979 O.2       6 UNK        -0.5237 
     44 N          27.6330   30.5376    4.1522 N.am      7 UNK        -0.4739 
     45 CA         27.9043   31.4963    3.0776 C.3       7 UNK         0.0276 
     46 CB         26.6233   31.6696    2.2443 C.3       7 UNK        -0.1927 
     47 C          29.0638   31.0602    2.1679 C.2       7 UNK         0.5013 
     48 O          29.7013   31.9260    1.5674 O.2       7 UNK        -0.5193 
     49 N          29.2984   29.7460    2.0494 N.am      8 UNK        -0.4253 
     50 CA         30.3103   29.1423    1.1822 C.3       8 UNK         0.0242 
     51 CB         30.1588   27.6131    1.2160 C.3       8 UNK        -0.2000 
     52 C          31.7444   29.5354    1.5710 C.2       8 UNK         0.4948 
     53 O          32.1079   29.4218    2.7443 O.2       8 UNK        -0.5275 
     54 N          32.5311   29.9418    0.5627 N.am      9 UNK        -0.4246 
     55 CA         33.9631   30.2618    0.6131 C.3       9 UNK         0.0261 
     56 CB         34.7853   28.9538    0.5509 C.3       9 UNK        -0.1959 
     57 C          34.3331   31.1955    1.7857 C.2       9 UNK         0.5033 
     58 O          33.7682   32.2861    1.8867 O.2       9 UNK        -0.5390 
     59 N          35.2621   30.7566    2.6437 N.am      10 UNK        -0.4215 
     60 CA         35.6762   31.4557    3.8612 C.3       10 UNK         0.0240 
     61 CB         37.1586   31.1389    4.1266 C.3       10 UNK        -0.1982 
     62 C          34.8220   31.0909    5.0911 C.2       10 UNK         0.4970 
     63 O          34.9870   31.7318    6.1304 O.2       10 UNK        -0.4916 
     64 N          33.9614   30.0694    4.9834 N.am      11 UNK        -0.4279 
     65 CA         33.1113   29.5878    6.0828 C.3       11 UNK         0.1003 
     66 C          31.8470   30.4638    6.2889 C.2       11 UNK         0.5709 
     67 N          31.2558   31.0051    5.2311 N.am      11 UNK        -0.7358 
     68 O          31.4169   30.6716    7.4211 O.2       11 UNK        -0.4999 
     69 C69        32.7246   28.0952    5.9180 C.3       12 UNK        -0.0954 
     70 S70        34.1636   26.9873    5.7694 S.3       12 UNK        -0.2268 
     71 C71        34.1067   26.6003    3.9864 C.3       12 UNK         0.0203 
     72 H72        27.7088   19.9732    1.1746 H         1 UNK         0.0888 
     73 H73        26.7112   20.3867   -0.2210 H         1 UNK         0.0888 
     74 H74        27.8944   19.0823   -0.3390 H         1 UNK         0.0888 
     75 H75        27.4126   22.2468   -1.2946 H         1 UNK         0.3017 
     76 H76        30.0625   22.6659   -2.1016 H         1 UNK         0.0873 
     77 H77        29.2501   24.9747   -0.2848 H         1 UNK         0.0745 
     78 H78        29.8441   23.5684    0.5035 H         1 UNK         0.0745 
     79 H79        32.1866   22.5191    0.2152 H         1 UNK         0.0705 
     80 H80        33.5606   23.5721    0.0085 H         1 UNK         0.0705 
     81 H81        33.8873   25.5530    1.5363 H         1 UNK         0.1334 
     82 H82        32.1727   25.1637    5.4580 H         1 UNK         0.1417 
     83 H83        30.9154   22.5648    2.3009 H         1 UNK         0.1562 
     84 H84        30.8091   23.2249    5.9689 H         1 UNK         0.0748 
     85 H85        30.5989   21.9963    4.7565 H         1 UNK         0.0748 
     86 H86        29.5866   25.2285    6.2188 H         1 UNK         0.0940 
     87 H87        27.8800   24.9591    6.4404 H         1 UNK         0.0940 
     88 H88        29.1219   26.3667    4.0294 H         1 UNK         0.0703 
     89 H89        26.5560   25.3162    4.2444 H         1 UNK         0.3081 
     90 H90        25.2183   25.5406    2.3732 H         1 UNK         0.0719 
     91 H91        24.1655   28.3095    3.2104 H         1 UNK         0.0809 
     92 H92        23.1697   26.9634    2.6566 H         1 UNK         0.0809 
     93 H93        24.0512   26.8391    4.1684 H         1 UNK         0.0809 
     94 H94        24.7910   27.9756    0.8487 H         1 UNK         0.2990 
     95 H95        25.2692   27.4560   -1.7198 H         1 UNK         0.0690 
     96 H96        25.8458   29.4934   -0.4003 H         1 UNK         0.0788 
     97 H97        26.7805   29.5171   -1.8820 H         1 UNK         0.0788 
     98 H98        27.5448   29.0424   -0.3670 H         1 UNK         0.0788 
     99 H99        27.8928   26.2900   -1.5448 H         1 UNK         0.2993 
    100 H100       27.9750   25.4513   -4.8634 H         1 UNK         0.0949 
    101 H101       30.2746   26.3662   -5.1492 H         1 UNK         0.0767 
    102 H102       29.0840   27.6422   -5.3366 H         1 UNK         0.0767 
    103 H103       30.0019   27.5198   -3.8419 H         1 UNK         0.0767 
    104 H104       29.9865   25.2855   -2.7995 H         1 UNK         0.3013 
    105 H105       26.4868   27.9891    5.5210 H         1 UNK         0.3121 
    106 H106       28.0922   29.6857    7.2818 H         1 UNK         0.0774 
    107 H107       25.9666   30.9700    7.4838 H         1 UNK         0.0815 
    108 H108       25.2272   29.9917    6.2245 H         1 UNK         0.0815 
    109 H109       25.6865   29.2599    7.7636 H         1 UNK         0.0815 
    110 H110       27.2898   29.6272    3.8581 H         1 UNK         0.2987 
    111 H111       28.1724   32.4704    3.4926 H         1 UNK         0.0949 
    112 H112       26.2953   30.7242    1.8102 H         1 UNK         0.0806 
    113 H113       25.8067   32.0599    2.8518 H         1 UNK         0.0806 
    114 H114       26.7803   32.3707    1.4233 H         1 UNK         0.0806 
    115 H115       28.6745   29.1023    2.5272 H         1 UNK         0.3010 
    116 H116       30.1092   29.4836    0.1648 H         1 UNK         0.0829 
    117 H117       29.1563   27.3000    0.9255 H         1 UNK         0.0813 
    118 H118       30.8604   27.1406    0.5289 H         1 UNK         0.0813 
    119 H119       30.3641   27.2110    2.2086 H         1 UNK         0.0813 
    120 H120       32.1071   30.0405   -0.3487 H         1 UNK         0.3038 
    121 H121       34.1821   30.8277   -0.2937 H         1 UNK         0.0769 
    122 H122       34.5983   28.3081    1.4077 H         1 UNK         0.0811 
    123 H123       35.8565   29.1541    0.5018 H         1 UNK         0.0811 
    124 H124       34.5347   28.3818   -0.3428 H         1 UNK         0.0811 
    125 H125       35.6782   29.8519    2.4773 H         1 UNK         0.3204 
    126 H126       35.5827   32.5333    3.7100 H         1 UNK         0.0748 
    127 H127       37.5239   31.6772    5.0024 H         1 UNK         0.0771 
    128 H128       37.3190   30.0753    4.3083 H         1 UNK         0.0771 
    129 H129       37.7846   31.4348    3.2844 H         1 UNK         0.0771 
    130 H130       33.7735   29.6624    4.0764 H         1 UNK         0.2980 
    131 H131       33.6912   29.6591    7.0053 H         1 UNK         0.0545 
    132 H132       31.5695   30.7541    4.3016 H         1 UNK         0.3459 
    133 H133       30.4171   31.5512    5.3688 H         1 UNK         0.3459 
    134 H134       32.1507   27.7607    6.7836 H         1 UNK         0.0616 
    135 H135       32.0731   27.9607    5.0526 H         1 UNK         0.0616 
    136 H136       33.8646   27.5096    3.4387 H         1 UNK         0.0634 
    137 H137       35.1159   26.3187    3.6829 H         1 UNK         0.0634 
@<TRIPOS>BOND
     1    1    2 1    
     2    1   72 1    
     3    1   73 1    
     4    1   74 1    
     5    2    3 2    
     6    2    4 am   BACKBONE|DICT|INTERRES
     7    4    5 1    
     8    4   75 1    
     9    5    6 1    
    10    5   35 1    
    11    5   76 1    
    12    6    7 1    
    13    6   77 1    
    14    6   78 1    
    15    7    8 1    
    16    8    9 1    
    17    8   79 1    
    18    8   80 1    
    19    9   10 ar   
    20    9   14 ar   
    21   10   11 ar   
    22   10   81 1    
    23   11   12 ar   
    24   11   71 1    
    25   12   13 ar   
    26   12   82 1    
    27   13   14 ar   
    28   13   15 1    
    29   14   83 1    
    30   15   16 1    
    31   15   84 1    
    32   15   85 1    
    33   16   17 1    
    34   17   18 1    
    35   17   86 1    
    36   17   87 1    
    37   18   19 1    
    38   18   37 1    
    39   18   88 1    
    40   19   20 am   BACKBONE|DICT|INTERRES
    41   19   89 1    
    42   20   21 2    
    43   20   22 1    
    44   22   23 1    
    45   22   24 1    
    46   22   90 1    
    47   23   91 1    
    48   23   92 1    
    49   23   93 1    
    50   24   25 am   BACKBONE|DICT|INTERRES
    51   24   94 1    
    52   25   26 2    
    53   25   27 1    
    54   27   28 1    
    55   27   29 1    
    56   27   95 1    
    57   28   96 1    
    58   28   97 1    
    59   28   98 1    
    60   29   30 am   BACKBONE|DICT|INTERRES
    61   29   99 1    
    62   30   31 2    
    63   30   32 1    
    64   32   33 1    
    65   32   34 1    
    66   32  100 1    
    67   33  101 1    
    68   33  102 1    
    69   33  103 1    
    70   34   35 am   BACKBONE|DICT|INTERRES
    71   34  104 1    
    72   35   36 2    
    73   37   38 2    
    74   37   39 am   BACKBONE|DICT|INTERRES
    75   39   40 1    
    76   39  105 1    
    77   40   41 1    
    78   40   42 1    
    79   40  106 1    
    80   41  107 1    
    81   41  108 1    
    82   41  109 1    
    83   42   43 2    
    84   42   44 am   BACKBONE|DICT|INTERRES
    85   44   45 1    
    86   44  110 1    
    87   45   46 1    
    88   45   47 1    
    89   45  111 1    
    90   46  112 1    
    91   46  113 1    
    92   46  114 1    
    93   47   48 2    
    94   47   49 am   BACKBONE|DICT|INTERRES
    95   49   50 1    
    96   49  115 1    
    97   50   51 1    
    98   50   52 1    
    99   50  116 1    
   100   51  117 1    
   101   51  118 1    
   102   51  119 1    
   103   52   53 2    
   104   52   54 am   BACKBONE|DICT|INTERRES
   105   54   55 1    
   106   54  120 1    
   107   55   56 1    
   108   55   57 1    
   109   55  121 1    
   110   56  122 1    
   111   56  123 1    
   112   56  124 1    
   113   57   58 2    
   114   57   59 am   BACKBONE|DICT|INTERRES
   115   59   60 1    
   116   59  125 1    
   117   60   61 1    
   118   60   62 1    
   119   60  126 1    
   120   61  127 1    
   121   61  128 1    
   122   61  129 1    
   123   62   63 2    
   124   62   64 am   BACKBONE|DICT|INTERRES
   125   64   65 1    
   126   64  130 1    
   127   65   66 1    
   128   65   69 1    
   129   65  131 1    
   130   66   67 am   BACKBONE|DICT|INTERRES
   131   66   68 2    
   132   67  132 1    
   133   67  133 1    
   134   69   70 1    
   135   69  134 1    
   136   69  135 1    
   137   70   71 1    
   138   71  136 1    
   139   71  137 1    
@<TRIPOS>SUBSTRUCTURE
     1 UNK         1 GROUP             0       ****    0 ROOT    
