@<TRIPOS>MOLECULE
3R136
137   139    1
SMALL
USER_CHARGES


@<TRIPOS>ATOM
      1 CA         28.2747   20.9369   -2.6640 C.3       0 UNK        -0.1979 
      2 C          28.0748   21.7531   -1.3958 C.2       0 UNK         0.4864 
      3 O          27.1616   22.5764   -1.3445 O.2       0 UNK        -0.5359 
      4 N          28.9213   21.5253   -0.3814 N.am      1 UNK        -0.4318 
      5 CA         28.9095   22.1874    0.9306 C.3       1 UNK         0.0824 
      6 C6         30.0250   21.6308    1.8469 C.3       12 UNK        -0.0944 
      7 S7         31.6930   22.0242    1.2243 S.3       12 UNK        -0.2672 
      8 C8         32.3994   22.9558    2.6205 C.3       12 UNK         0.0333 
      9 C9         31.9735   24.4180    2.6221 C.ar      12 UNK        -0.0807 
     10 C10        32.7589   25.3687    1.9629 C.ar      12 UNK        -0.0894 
     11 C11        32.4315   26.7259    2.0230 C.ar      12 UNK        -0.0804 
     12 C12        31.2941   27.1277    2.7295 C.ar      12 UNK        -0.0824 
     13 C13        30.4898   26.1878    3.3785 C.ar      12 UNK        -0.0762 
     14 C14        30.8355   24.8331    3.3234 C.ar      12 UNK        -0.0782 
     15 C15        29.2783   26.6432    4.1799 C.3       12 UNK         0.0230 
     16 S16        27.7713   26.7302    3.1602 S.3       12 UNK        -0.2608 
     17 C17        28.0201   28.2745    2.2159 C.3       12 UNK        -0.0989 
     18 CA         28.3453   28.0322    0.7171 C.3       5 UNK         0.0716 
     19 N          27.1988   27.5337   -0.0387 N.am      5 UNK        -0.4135 
     20 C          26.9470   26.2545   -0.3197 C.2       4 UNK         0.5031 
     21 O          27.6267   25.3127    0.0939 O.2       4 UNK        -0.5229 
     22 CA         25.7482   25.9846   -1.2387 C.3       4 UNK         0.0329 
     23 CB         26.1808   25.9720   -2.7139 C.3       4 UNK        -0.2001 
     24 N          25.2007   24.6819   -0.8864 N.am      4 UNK        -0.4303 
     25 C          23.9114   24.4009   -0.6693 C.2       3 UNK         0.5044 
     26 O          22.9820   25.1654   -0.9319 O.2       3 UNK        -0.5152 
     27 CA         23.6182   23.0567    0.0215 C.3       3 UNK         0.0319 
     28 CB         23.6276   21.8966   -0.9866 C.3       3 UNK        -0.2001 
     29 N          24.5820   22.7940    1.0942 N.am      3 UNK        -0.4354 
     30 C          24.6582   23.4965    2.2341 C.2       2 UNK         0.4964 
     31 O          23.8044   24.3111    2.5864 O.2       2 UNK        -0.5047 
     32 CA         25.9061   23.3083    3.1154 C.3       2 UNK         0.0288 
     33 CB         25.6959   22.2084    4.1751 C.3       2 UNK        -0.2113 
     34 N          27.1528   23.1237    2.3566 N.am      2 UNK        -0.4145 
     35 C          27.5472   22.0602    1.6425 C.2       1 UNK         0.5006 
     36 O          26.8954   21.0172    1.5393 O.2       1 UNK        -0.5103 
     37 C          28.7656   29.3421    0.0339 C.2       5 UNK         0.5055 
     38 O          27.9005   30.0679   -0.4673 O.2       5 UNK        -0.5220 
     39 N          30.0722   29.6325    0.0338 N.am      6 UNK        -0.4450 
     40 CA         30.6235   30.9034   -0.4422 C.3       6 UNK         0.0367 
     41 CB         32.1192   30.7307   -0.7560 C.3       6 UNK        -0.1929 
     42 C          30.4267   32.0103    0.6047 C.2       6 UNK         0.5070 
     43 O          30.2706   31.7147    1.7922 O.2       6 UNK        -0.5237 
     44 N          30.5071   33.2689    0.1518 N.am      7 UNK        -0.4739 
     45 CA         30.3387   34.4856    0.9604 C.3       7 UNK         0.0276 
     46 CB         30.3947   35.7124    0.0352 C.3       7 UNK        -0.1927 
     47 C          31.3382   34.6442    2.1238 C.2       7 UNK         0.5013 
     48 O          31.0603   35.4044    3.0518 O.2       7 UNK        -0.5193 
     49 N          32.4639   33.9174    2.0685 N.am      8 UNK        -0.4253 
     50 CA         33.4381   33.7911    3.1543 C.3       8 UNK         0.0242 
     51 CB         34.6843   33.0555    2.6355 C.3       8 UNK        -0.2000 
     52 C          32.8766   33.0794    4.3999 C.2       8 UNK         0.4948 
     53 O          33.3483   33.3624    5.5017 O.2       8 UNK        -0.5275 
     54 N          31.8968   32.1786    4.2098 N.am      9 UNK        -0.4246 
     55 CA         31.1081   31.4237    5.1982 C.3       9 UNK         0.0261 
     56 CB         30.2303   32.3766    6.0310 C.3       9 UNK        -0.1959 
     57 C          31.8870   30.4622    6.1187 C.2       9 UNK         0.5033 
     58 O          31.3901   29.3713    6.3971 O.2       9 UNK        -0.5390 
     59 N          33.0710   30.8732    6.5848 N.am      10 UNK        -0.4215 
     60 CA         33.9474   30.1351    7.4987 C.3       10 UNK         0.0240 
     61 CB         34.9383   31.1254    8.1339 C.3       10 UNK        -0.1982 
     62 C          34.7020   28.9641    6.8418 C.2       10 UNK         0.4970 
     63 O          35.2893   28.1561    7.5633 O.2       10 UNK        -0.4916 
     64 N          34.6991   28.9013    5.5048 N.am      11 UNK        -0.4279 
     65 CA         35.2632   27.8112    4.6983 C.3       11 UNK         0.1003 
     66 C          34.5656   26.4343    4.9055 C.2       11 UNK         0.5709 
     67 N          35.1891   25.3558    4.4480 N.am      11 UNK        -0.7358 
     68 O          33.4844   26.3243    5.4794 O.2       11 UNK        -0.4999 
     69 C69        35.3956   28.2169    3.2019 C.3       12 UNK        -0.0954 
     70 S70        33.9253   29.0283    2.4770 S.3       12 UNK        -0.2268 
     71 C71        33.3037   27.7585    1.3263 C.3       12 UNK         0.0203 
     72 H72        28.4570   21.5992   -3.5098 H         1 UNK         0.0888 
     73 H73        29.1182   20.2519   -2.5806 H         1 UNK         0.0888 
     74 H74        27.3806   20.3512   -2.8758 H         1 UNK         0.0888 
     75 H75        29.6456   20.8318   -0.4970 H         1 UNK         0.3017 
     76 H76        29.1013   23.2475    0.7531 H         1 UNK         0.0873 
     77 H77        29.9398   20.5460    1.9373 H         1 UNK         0.0745 
     78 H78        29.9227   22.0172    2.8618 H         1 UNK         0.0745 
     79 H79        33.4869   22.8947    2.5567 H         1 UNK         0.0705 
     80 H80        32.1332   22.4777    3.5644 H         1 UNK         0.0705 
     81 H81        33.6426   25.0519    1.4260 H         1 UNK         0.1334 
     82 H82        31.0511   28.1786    2.7959 H         1 UNK         0.1417 
     83 H83        30.2321   24.1079    3.8506 H         1 UNK         0.1562 
     84 H84        29.4710   27.6109    4.6467 H         1 UNK         0.0748 
     85 H85        29.1002   25.9482    5.0018 H         1 UNK         0.0748 
     86 H86        28.8054   28.8605    2.6964 H         1 UNK         0.0940 
     87 H87        27.1139   28.8758    2.3112 H         1 UNK         0.0940 
     88 H88        29.1745   27.3257    0.6325 H         1 UNK         0.0703 
     89 H89        26.6416   28.2655   -0.4616 H         1 UNK         0.3081 
     90 H90        25.0013   26.7659   -1.0814 H         1 UNK         0.0719 
     91 H91        26.6045   26.9330   -3.0079 H         1 UNK         0.0809 
     92 H92        26.9365   25.2076   -2.9021 H         1 UNK         0.0809 
     93 H93        25.3345   25.7738   -3.3716 H         1 UNK         0.0809 
     94 H94        25.9069   23.9777   -0.6809 H         1 UNK         0.2990 
     95 H95        22.6216   23.1154    0.4642 H         1 UNK         0.0690 
     96 H96        24.6033   21.7741   -1.4574 H         1 UNK         0.0788 
     97 H97        22.9012   22.0676   -1.7822 H         1 UNK         0.0788 
     98 H98        23.3670   20.9531   -0.5067 H         1 UNK         0.0788 
     99 H99        25.3180   22.1214    0.9058 H         1 UNK         0.2993 
    100 H100       26.0387   24.2481    3.6539 H         1 UNK         0.0949 
    101 H101       25.4909   21.2365    3.7258 H         1 UNK         0.0767 
    102 H102       26.5699   22.1050    4.8183 H         1 UNK         0.0767 
    103 H103       24.8475   22.4493    4.8169 H         1 UNK         0.0767 
    104 H104       27.7231   23.9581    2.2904 H         1 UNK         0.3013 
    105 H105       30.7137   29.0078    0.4969 H         1 UNK         0.3121 
    106 H106       30.1050   31.1900   -1.3601 H         1 UNK         0.0774 
    107 H107       32.5195   31.6186   -1.2467 H         1 UNK         0.0815 
    108 H108       32.7086   30.5728    0.1473 H         1 UNK         0.0815 
    109 H109       32.2934   29.8899   -1.4277 H         1 UNK         0.0815 
    110 H110       30.6612   33.4126   -0.8366 H         1 UNK         0.2987 
    111 H111       29.3438   34.4402    1.4088 H         1 UNK         0.0949 
    112 H112       29.6184   35.6707   -0.7292 H         1 UNK         0.0806 
    113 H113       30.2406   36.6346    0.5977 H         1 UNK         0.0806 
    114 H114       31.3593   35.7953   -0.4672 H         1 UNK         0.0806 
    115 H115       32.6083   33.3391    1.2543 H         1 UNK         0.3010 
    116 H116       33.7335   34.7976    3.4585 H         1 UNK         0.0829 
    117 H117       35.1527   33.5983    1.8143 H         1 UNK         0.0813 
    118 H118       35.4334   32.9527    3.4221 H         1 UNK         0.0813 
    119 H119       34.4448   32.0523    2.2816 H         1 UNK         0.0813 
    120 H120       31.5797   32.0379    3.2542 H         1 UNK         0.3038 
    121 H121       30.4369   30.7990    4.6059 H         1 UNK         0.0769 
    122 H122       29.5775   31.8189    6.7040 H         1 UNK         0.0811 
    123 H123       29.5918   32.9855    5.3907 H         1 UNK         0.0811 
    124 H124       30.8299   33.0505    6.6438 H         1 UNK         0.0811 
    125 H125       33.3666   31.8103    6.3077 H         1 UNK         0.3204 
    126 H126       33.3289   29.7123    8.2931 H         1 UNK         0.0748 
    127 H127       35.5892   30.6248    8.8522 H         1 UNK         0.0771 
    128 H128       35.5772   31.5924    7.3831 H         1 UNK         0.0771 
    129 H129       34.4170   31.9186    8.6703 H         1 UNK         0.0771 
    130 H130       34.1645   29.5859    4.9928 H         1 UNK         0.2980 
    131 H131       36.2790   27.6677    5.0718 H         1 UNK         0.0545 
    132 H132       34.7548   24.4566    4.5770 H         1 UNK         0.3459 
    133 H133       36.0820   25.4217    3.9861 H         1 UNK         0.3459 
    134 H134       36.2142   28.9321    3.1097 H         1 UNK         0.0616 
    135 H135       35.6950   27.3675    2.5861 H         1 UNK         0.0616 
    136 H136       32.7094   28.2398    0.5518 H         1 UNK         0.0634 
    137 H137       34.1428   27.2892    0.8107 H         1 UNK         0.0634 
@<TRIPOS>BOND
     1    1    2 1    
     2    1   72 1    
     3    1   73 1    
     4    1   74 1    
     5    2    3 2    
     6    2    4 am   BACKBONE|DICT|INTERRES
     7    4    5 1    
     8    4   75 1    
     9    5    6 1    
    10    5   35 1    
    11    5   76 1    
    12    6    7 1    
    13    6   77 1    
    14    6   78 1    
    15    7    8 1    
    16    8    9 1    
    17    8   79 1    
    18    8   80 1    
    19    9   10 ar   
    20    9   14 ar   
    21   10   11 ar   
    22   10   81 1    
    23   11   12 ar   
    24   11   71 1    
    25   12   13 ar   
    26   12   82 1    
    27   13   14 ar   
    28   13   15 1    
    29   14   83 1    
    30   15   16 1    
    31   15   84 1    
    32   15   85 1    
    33   16   17 1    
    34   17   18 1    
    35   17   86 1    
    36   17   87 1    
    37   18   19 1    
    38   18   37 1    
    39   18   88 1    
    40   19   20 am   BACKBONE|DICT|INTERRES
    41   19   89 1    
    42   20   21 2    
    43   20   22 1    
    44   22   23 1    
    45   22   24 1    
    46   22   90 1    
    47   23   91 1    
    48   23   92 1    
    49   23   93 1    
    50   24   25 am   BACKBONE|DICT|INTERRES
    51   24   94 1    
    52   25   26 2    
    53   25   27 1    
    54   27   28 1    
    55   27   29 1    
    56   27   95 1    
    57   28   96 1    
    58   28   97 1    
    59   28   98 1    
    60   29   30 am   BACKBONE|DICT|INTERRES
    61   29   99 1    
    62   30   31 2    
    63   30   32 1    
    64   32   33 1    
    65   32   34 1    
    66   32  100 1    
    67   33  101 1    
    68   33  102 1    
    69   33  103 1    
    70   34   35 am   BACKBONE|DICT|INTERRES
    71   34  104 1    
    72   35   36 2    
    73   37   38 2    
    74   37   39 am   BACKBONE|DICT|INTERRES
    75   39   40 1    
    76   39  105 1    
    77   40   41 1    
    78   40   42 1    
    79   40  106 1    
    80   41  107 1    
    81   41  108 1    
    82   41  109 1    
    83   42   43 2    
    84   42   44 am   BACKBONE|DICT|INTERRES
    85   44   45 1    
    86   44  110 1    
    87   45   46 1    
    88   45   47 1    
    89   45  111 1    
    90   46  112 1    
    91   46  113 1    
    92   46  114 1    
    93   47   48 2    
    94   47   49 am   BACKBONE|DICT|INTERRES
    95   49   50 1    
    96   49  115 1    
    97   50   51 1    
    98   50   52 1    
    99   50  116 1    
   100   51  117 1    
   101   51  118 1    
   102   51  119 1    
   103   52   53 2    
   104   52   54 am   BACKBONE|DICT|INTERRES
   105   54   55 1    
   106   54  120 1    
   107   55   56 1    
   108   55   57 1    
   109   55  121 1    
   110   56  122 1    
   111   56  123 1    
   112   56  124 1    
   113   57   58 2    
   114   57   59 am   BACKBONE|DICT|INTERRES
   115   59   60 1    
   116   59  125 1    
   117   60   61 1    
   118   60   62 1    
   119   60  126 1    
   120   61  127 1    
   121   61  128 1    
   122   61  129 1    
   123   62   63 2    
   124   62   64 am   BACKBONE|DICT|INTERRES
   125   64   65 1    
   126   64  130 1    
   127   65   66 1    
   128   65   69 1    
   129   65  131 1    
   130   66   67 am   BACKBONE|DICT|INTERRES
   131   66   68 2    
   132   67  132 1    
   133   67  133 1    
   134   69   70 1    
   135   69  134 1    
   136   69  135 1    
   137   70   71 1    
   138   71  136 1    
   139   71  137 1    
@<TRIPOS>SUBSTRUCTURE
     1 UNK         1 GROUP             0       ****    0 ROOT    
