@<TRIPOS>MOLECULE
3R136
137   139    1
SMALL
USER_CHARGES


@<TRIPOS>ATOM
      1 CA         26.4926   20.3891    2.6532 C.3       0 UNK        -0.1979 
      2 C          26.8994   21.4822    1.6776 C.2       0 UNK         0.4864 
      3 O          26.1601   22.4513    1.5007 O.2       0 UNK        -0.5359 
      4 N          28.0768   21.3485    1.0508 N.am      1 UNK        -0.4318 
      5 CA         28.6168   22.3067    0.0777 C.3       1 UNK         0.0824 
      6 C6         29.8598   21.7635   -0.6651 C.3       12 UNK        -0.0944 
      7 S7         31.2363   21.2774    0.4335 S.3       12 UNK        -0.2672 
      8 C8         32.6443   22.1225   -0.3497 C.3       12 UNK         0.0333 
      9 C9         32.7697   23.5759    0.0868 C.ar      12 UNK        -0.0807 
     10 C10        33.4643   23.8887    1.2577 C.ar      12 UNK        -0.0894 
     11 C11        33.6769   25.2194    1.6274 C.ar      12 UNK        -0.0804 
     12 C12        33.1596   26.2456    0.8294 C.ar      12 UNK        -0.0824 
     13 C13        32.4580   25.9492   -0.3459 C.ar      12 UNK        -0.0762 
     14 C14        32.2663   24.6101   -0.7089 C.ar      12 UNK        -0.0782 
     15 C15        32.0165   27.0731   -1.2806 C.3       12 UNK         0.0230 
     16 S16        30.2752   26.9492   -1.8092 S.3       12 UNK        -0.2608 
     17 C17        29.4398   28.0078   -0.5857 C.3       12 UNK        -0.0989 
     18 CA         27.9456   28.2206   -0.9383 C.3       5 UNK         0.0716 
     19 N          27.1447   27.0071   -0.7462 N.am      5 UNK        -0.4135 
     20 C          25.8685   26.8537   -1.1317 C.2       4 UNK         0.5031 
     21 O          25.2500   27.6761   -1.8088 O.2       4 UNK        -0.5229 
     22 CA         25.1429   25.5821   -0.6546 C.3       4 UNK         0.0329 
     23 CB         25.4711   24.3843   -1.5599 C.3       4 UNK        -0.2001 
     24 N          25.4465   25.2591    0.7429 N.am      4 UNK        -0.4303 
     25 C          25.0736   26.0114    1.7899 C.2       3 UNK         0.5044 
     26 O          24.3453   26.9992    1.6996 O.2       3 UNK        -0.5152 
     27 CA         25.6225   25.6175    3.1709 C.3       3 UNK         0.0319 
     28 CB         24.6915   24.6109    3.8654 C.3       3 UNK        -0.2001 
     29 N          26.9785   25.0705    3.1002 N.am      3 UNK        -0.4354 
     30 C          28.0770   25.7945    2.8387 C.2       2 UNK         0.4964 
     31 O          28.0699   27.0121    2.6574 O.2       2 UNK        -0.5047 
     32 CA         29.3991   25.0170    2.7147 C.3       2 UNK         0.0288 
     33 CB         29.9571   24.6869    4.1068 C.3       2 UNK        -0.2113 
     34 N          29.2583   23.7775    1.9476 N.am      2 UNK        -0.4145 
     35 C          28.8525   23.7106    0.6712 C.2       1 UNK         0.5006 
     36 O          28.5938   24.6993   -0.0118 O.2       1 UNK        -0.5103 
     37 C          27.3569   29.4111   -0.1550 C.2       5 UNK         0.5055 
     38 O          27.1964   30.4881   -0.7328 O.2       5 UNK        -0.5220 
     39 N          27.0321   29.1880    1.1286 N.am      6 UNK        -0.4450 
     40 CA         26.4263   30.1099    2.0985 C.3       6 UNK         0.0367 
     41 CB         25.0364   30.5971    1.6414 C.3       6 UNK        -0.1929 
     42 C          27.3487   31.2790    2.4763 C.2       6 UNK         0.5070 
     43 O          27.7853   31.3644    3.6237 O.2       6 UNK        -0.5237 
     44 N          27.6805   32.1294    1.4989 N.am      7 UNK        -0.4739 
     45 CA         28.6352   33.2357    1.6059 C.3       7 UNK         0.0276 
     46 CB         28.2336   34.3352    0.6054 C.3       7 UNK        -0.1927 
     47 C          30.0818   32.7420    1.4000 C.2       7 UNK         0.5013 
     48 O          30.8348   33.3265    0.6183 O.2       7 UNK        -0.5193 
     49 N          30.4314   31.6485    2.0857 N.am      8 UNK        -0.4253 
     50 CA         31.7489   31.0206    2.0672 C.3       8 UNK         0.0242 
     51 CB         31.5862   29.5490    2.4790 C.3       8 UNK        -0.2000 
     52 C          32.7198   31.7425    3.0143 C.2       8 UNK         0.4948 
     53 O          32.2866   32.4660    3.9162 O.2       8 UNK        -0.5275 
     54 N          34.0220   31.4895    2.8314 N.am      9 UNK        -0.4246 
     55 CA         35.1169   32.0204    3.6507 C.3       9 UNK         0.0261 
     56 CB         36.4359   31.8807    2.8670 C.3       9 UNK        -0.1959 
     57 C          35.1822   31.3525    5.0404 C.2       9 UNK         0.5033 
     58 O          36.1315   30.6222    5.3305 O.2       9 UNK        -0.5390 
     59 N          34.1488   31.6014    5.8574 N.am      10 UNK        -0.4215 
     60 CA         33.9303   31.0965    7.2203 C.3       10 UNK         0.0240 
     61 CB         34.9959   31.6527    8.1896 C.3       10 UNK        -0.1982 
     62 C          33.7903   29.5612    7.3005 C.2       10 UNK         0.4970 
     63 O          34.1448   28.9677    8.3209 O.2       10 UNK        -0.4916 
     64 N          33.2658   28.9467    6.2311 N.am      11 UNK        -0.4279 
     65 CA         33.0291   27.4970    6.1315 C.3       11 UNK         0.1003 
     66 C          31.8128   26.9846    6.9602 C.2       11 UNK         0.5709 
     67 N          30.8994   27.8449    7.3961 N.am      11 UNK        -0.7358 
     68 O          31.7038   25.7914    7.2293 O.2       11 UNK        -0.4999 
     69 C69        32.9595   27.0433    4.6465 C.3       12 UNK        -0.0954 
     70 S70        33.6231   25.3628    4.4025 S.3       12 UNK        -0.2268 
     71 C71        34.5417   25.5301    2.8418 C.3       12 UNK         0.0203 
     72 H72        25.5571   19.9319    2.3323 H         1 UNK         0.0888 
     73 H73        27.2468   19.6057    2.7257 H         1 UNK         0.0888 
     74 H74        26.3428   20.8105    3.6468 H         1 UNK         0.0888 
     75 H75        28.6568   20.5417    1.2354 H         1 UNK         0.3017 
     76 H76        27.8386   22.4328   -0.6774 H         1 UNK         0.0873 
     77 H77        30.2025   22.4918   -1.4019 H         1 UNK         0.0745 
     78 H78        29.5772   20.8825   -1.2435 H         1 UNK         0.0745 
     79 H79        32.5667   22.0491   -1.4356 H         1 UNK         0.0705 
     80 H80        33.5568   21.5872   -0.0826 H         1 UNK         0.0705 
     81 H81        33.8744   23.0933    1.8654 H         1 UNK         0.1334 
     82 H82        33.3497   27.2748    1.0969 H         1 UNK         0.1417 
     83 H83        31.7524   24.3776   -1.6314 H         1 UNK         0.1562 
     84 H84        32.6443   27.0347   -2.1717 H         1 UNK         0.0748 
     85 H85        32.1945   28.0509   -0.8306 H         1 UNK         0.0748 
     86 H86        29.9673   28.9638   -0.5593 H         1 UNK         0.0940 
     87 H87        29.5509   27.5604    0.4034 H         1 UNK         0.0940 
     88 H88        27.8819   28.4836   -1.9965 H         1 UNK         0.0703 
     89 H89        27.6148   26.2255   -0.2931 H         1 UNK         0.3081 
     90 H90        24.0686   25.7670   -0.7214 H         1 UNK         0.0719 
     91 H91        25.1230   24.5645   -2.5778 H         1 UNK         0.0809 
     92 H92        26.5427   24.1983   -1.6163 H         1 UNK         0.0809 
     93 H93        24.9882   23.4726   -1.2072 H         1 UNK         0.0809 
     94 H94        25.9791   24.4137    0.9212 H         1 UNK         0.2990 
     95 H95        25.6557   26.5225    3.7817 H         1 UNK         0.0690 
     96 H96        25.0433   24.3718    4.8690 H         1 UNK         0.0788 
     97 H97        24.6105   23.6782    3.3064 H         1 UNK         0.0788 
     98 H98        23.6844   25.0183    3.9641 H         1 UNK         0.0788 
     99 H99        27.0651   24.0672    3.1764 H         1 UNK         0.2993 
    100 H100       30.1174   25.6528    2.1916 H         1 UNK         0.0949 
    101 H101       30.0909   25.5923    4.6994 H         1 UNK         0.0767 
    102 H102       29.2925   24.0284    4.6673 H         1 UNK         0.0767 
    103 H103       30.9282   24.1975    4.0361 H         1 UNK         0.0767 
    104 H104       29.4633   22.9130    2.4266 H         1 UNK         0.3013 
    105 H105       27.2911   28.2871    1.5269 H         1 UNK         0.3121 
    106 H106       26.2787   29.5202    3.0050 H         1 UNK         0.0774 
    107 H107       24.3686   29.7569    1.4516 H         1 UNK         0.0815 
    108 H108       24.5701   31.2140    2.4104 H         1 UNK         0.0815 
    109 H109       25.0830   31.1955    0.7315 H         1 UNK         0.0815 
    110 H110       27.3662   31.8867    0.5624 H         1 UNK         0.2987 
    111 H111       28.5821   33.6607    2.6108 H         1 UNK         0.0949 
    112 H112       27.2177   34.6858    0.7886 H         1 UNK         0.0806 
    113 H113       28.8925   35.2006    0.6878 H         1 UNK         0.0806 
    114 H114       28.2854   33.9804   -0.4248 H         1 UNK         0.0806 
    115 H115       29.7598   31.2849    2.7510 H         1 UNK         0.3010 
    116 H116       32.1496   31.0645    1.0519 H         1 UNK         0.0829 
    117 H117       32.5364   29.0222    2.4128 H         1 UNK         0.0813 
    118 H118       31.2220   29.4525    3.5027 H         1 UNK         0.0813 
    119 H119       30.8850   29.0273    1.8293 H         1 UNK         0.0813 
    120 H120       34.2920   30.8617    2.0877 H         1 UNK         0.3038 
    121 H121       34.9421   33.0865    3.8127 H         1 UNK         0.0769 
    122 H122       37.2729   32.2868    3.4368 H         1 UNK         0.0811 
    123 H123       36.3965   32.4241    1.9228 H         1 UNK         0.0811 
    124 H124       36.6680   30.8381    2.6457 H         1 UNK         0.0811 
    125 H125       33.3913   32.1550    5.4607 H         1 UNK         0.3204 
    126 H126       32.9653   31.4964    7.5351 H         1 UNK         0.0748 
    127 H127       34.7544   31.4044    9.2239 H         1 UNK         0.0771 
    128 H128       35.9856   31.2451    7.9807 H         1 UNK         0.0771 
    129 H129       35.0606   32.7390    8.1270 H         1 UNK         0.0771 
    130 H130       32.9890   29.5065    5.4405 H         1 UNK         0.2980 
    131 H131       33.9066   27.0238    6.5774 H         1 UNK         0.0545 
    132 H132       30.9774   28.8275    7.1922 H         1 UNK         0.3459 
    133 H133       30.1233   27.5026    7.9400 H         1 UNK         0.3459 
    134 H134       31.9445   27.0958    4.2496 H         1 UNK         0.0616 
    135 H135       33.5552   27.7199    4.0344 H         1 UNK         0.0616 
    136 H136       34.9886   26.5218    2.7612 H         1 UNK         0.0634 
    137 H137       35.3804   24.8327    2.8667 H         1 UNK         0.0634 
@<TRIPOS>BOND
     1    1    2 1    
     2    1   72 1    
     3    1   73 1    
     4    1   74 1    
     5    2    3 2    
     6    2    4 am   BACKBONE|DICT|INTERRES
     7    4    5 1    
     8    4   75 1    
     9    5    6 1    
    10    5   35 1    
    11    5   76 1    
    12    6    7 1    
    13    6   77 1    
    14    6   78 1    
    15    7    8 1    
    16    8    9 1    
    17    8   79 1    
    18    8   80 1    
    19    9   10 ar   
    20    9   14 ar   
    21   10   11 ar   
    22   10   81 1    
    23   11   12 ar   
    24   11   71 1    
    25   12   13 ar   
    26   12   82 1    
    27   13   14 ar   
    28   13   15 1    
    29   14   83 1    
    30   15   16 1    
    31   15   84 1    
    32   15   85 1    
    33   16   17 1    
    34   17   18 1    
    35   17   86 1    
    36   17   87 1    
    37   18   19 1    
    38   18   37 1    
    39   18   88 1    
    40   19   20 am   BACKBONE|DICT|INTERRES
    41   19   89 1    
    42   20   21 2    
    43   20   22 1    
    44   22   23 1    
    45   22   24 1    
    46   22   90 1    
    47   23   91 1    
    48   23   92 1    
    49   23   93 1    
    50   24   25 am   BACKBONE|DICT|INTERRES
    51   24   94 1    
    52   25   26 2    
    53   25   27 1    
    54   27   28 1    
    55   27   29 1    
    56   27   95 1    
    57   28   96 1    
    58   28   97 1    
    59   28   98 1    
    60   29   30 am   BACKBONE|DICT|INTERRES
    61   29   99 1    
    62   30   31 2    
    63   30   32 1    
    64   32   33 1    
    65   32   34 1    
    66   32  100 1    
    67   33  101 1    
    68   33  102 1    
    69   33  103 1    
    70   34   35 am   BACKBONE|DICT|INTERRES
    71   34  104 1    
    72   35   36 2    
    73   37   38 2    
    74   37   39 am   BACKBONE|DICT|INTERRES
    75   39   40 1    
    76   39  105 1    
    77   40   41 1    
    78   40   42 1    
    79   40  106 1    
    80   41  107 1    
    81   41  108 1    
    82   41  109 1    
    83   42   43 2    
    84   42   44 am   BACKBONE|DICT|INTERRES
    85   44   45 1    
    86   44  110 1    
    87   45   46 1    
    88   45   47 1    
    89   45  111 1    
    90   46  112 1    
    91   46  113 1    
    92   46  114 1    
    93   47   48 2    
    94   47   49 am   BACKBONE|DICT|INTERRES
    95   49   50 1    
    96   49  115 1    
    97   50   51 1    
    98   50   52 1    
    99   50  116 1    
   100   51  117 1    
   101   51  118 1    
   102   51  119 1    
   103   52   53 2    
   104   52   54 am   BACKBONE|DICT|INTERRES
   105   54   55 1    
   106   54  120 1    
   107   55   56 1    
   108   55   57 1    
   109   55  121 1    
   110   56  122 1    
   111   56  123 1    
   112   56  124 1    
   113   57   58 2    
   114   57   59 am   BACKBONE|DICT|INTERRES
   115   59   60 1    
   116   59  125 1    
   117   60   61 1    
   118   60   62 1    
   119   60  126 1    
   120   61  127 1    
   121   61  128 1    
   122   61  129 1    
   123   62   63 2    
   124   62   64 am   BACKBONE|DICT|INTERRES
   125   64   65 1    
   126   64  130 1    
   127   65   66 1    
   128   65   69 1    
   129   65  131 1    
   130   66   67 am   BACKBONE|DICT|INTERRES
   131   66   68 2    
   132   67  132 1    
   133   67  133 1    
   134   69   70 1    
   135   69  134 1    
   136   69  135 1    
   137   70   71 1    
   138   71  136 1    
   139   71  137 1    
@<TRIPOS>SUBSTRUCTURE
     1 UNK         1 GROUP             0       ****    0 ROOT    
