@<TRIPOS>MOLECULE
3R136
137   139    1
SMALL
USER_CHARGES


@<TRIPOS>ATOM
      1 CA         31.7448   25.4856   -4.3376 C.3       0 UNK        -0.1979 
      2 C          30.4489   25.9672   -3.7021 C.2       0 UNK         0.4864 
      3 O          29.6055   26.5390   -4.3940 O.2       0 UNK        -0.5359 
      4 N          30.2892   25.7426   -2.3908 N.am      1 UNK        -0.4318 
      5 CA         29.1148   26.1396   -1.6028 C.3       1 UNK         0.0824 
      6 C6         29.3545   25.9676   -0.0834 C.3       12 UNK        -0.0944 
      7 S7         30.7296   26.9853    0.5441 S.3       12 UNK        -0.2672 
      8 C8         31.7783   25.7448    1.3646 C.3       12 UNK         0.0333 
      9 C9         31.2696   25.4133    2.7606 C.ar      12 UNK        -0.0807 
     10 C10        31.7682   26.1069    3.8675 C.ar      12 UNK        -0.0894 
     11 C11        31.3334   25.7908    5.1584 C.ar      12 UNK        -0.0804 
     12 C12        30.3698   24.7936    5.3357 C.ar      12 UNK        -0.0824 
     13 C13        29.8529   24.1016    4.2348 C.ar      12 UNK        -0.0762 
     14 C14        30.3215   24.4029    2.9526 C.ar      12 UNK        -0.0782 
     15 C15        28.7937   23.0220    4.4335 C.3       12 UNK         0.0230 
     16 S16        27.1916   23.4468    3.6651 S.3       12 UNK        -0.2608 
     17 C17        26.8525   25.0880    4.3829 C.3       12 UNK        -0.0989 
     18 CA         27.0452   26.1998    3.3207 C.3       5 UNK         0.0716 
     19 N          25.8980   26.2678    2.4089 N.am      5 UNK        -0.4135 
     20 C          25.7553   27.0962    1.3658 C.2       4 UNK         0.5031 
     21 O          26.6025   27.9180    1.0135 O.2       4 UNK        -0.5229 
     22 CA         24.4475   26.9514    0.5688 C.3       4 UNK         0.0329 
     23 CB         24.2939   28.0242   -0.5262 C.3       4 UNK        -0.2001 
     24 N          24.3569   25.6253   -0.0456 N.am      4 UNK        -0.4303 
     25 C          23.8750   24.5302    0.5596 C.2       3 UNK         0.5044 
     26 O          23.4851   24.5246    1.7284 O.2       3 UNK        -0.5152 
     27 CA         23.8034   23.2266   -0.2591 C.3       3 UNK         0.0319 
     28 CB         22.3753   23.0035   -0.7828 C.3       3 UNK        -0.2001 
     29 N          24.7363   23.1961   -1.3884 N.am      3 UNK        -0.4354 
     30 C          26.0530   22.9812   -1.2723 C.2       2 UNK         0.4964 
     31 O          26.6086   22.7167   -0.2051 O.2       2 UNK        -0.5047 
     32 CA         26.9151   23.1029   -2.5459 C.3       2 UNK         0.0288 
     33 CB         26.1225   23.4151   -3.8375 C.3       2 UNK        -0.2113 
     34 N          27.9902   24.0805   -2.3400 N.am      2 UNK        -0.4145 
     35 C          27.8378   25.3723   -2.0024 C.2       1 UNK         0.5006 
     36 O          26.7488   25.9477   -1.9647 O.2       1 UNK        -0.5103 
     37 C          27.3624   27.5495    3.9939 C.2       5 UNK         0.5055 
     38 O          26.4510   28.3336    4.2708 O.2       5 UNK        -0.5220 
     39 N          28.6586   27.7528    4.2725 N.am      6 UNK        -0.4450 
     40 CA         29.2669   28.9594    4.8406 C.3       6 UNK         0.0367 
     41 CB         28.7586   29.2294    6.2730 C.3       6 UNK        -0.1929 
     42 C          29.1433   30.1702    3.8973 C.2       6 UNK         0.5070 
     43 O          28.7012   31.2427    4.3123 O.2       6 UNK        -0.5237 
     44 N          29.5634   29.9693    2.6439 N.am      7 UNK        -0.4739 
     45 CA         29.7093   31.0005    1.6189 C.3       7 UNK         0.0276 
     46 CB         28.8457   30.6138    0.4065 C.3       7 UNK        -0.1927 
     47 C          31.1889   31.0924    1.2176 C.2       7 UNK         0.5013 
     48 O          31.9304   30.1262    1.4114 O.2       7 UNK        -0.5193 
     49 N          31.5843   32.2425    0.6491 N.am      8 UNK        -0.4253 
     50 CA         32.9410   32.5756    0.1888 C.3       8 UNK         0.0242 
     51 CB         33.2977   31.7645   -1.0789 C.3       8 UNK        -0.2000 
     52 C          33.9673   32.4468    1.3321 C.2       8 UNK         0.4948 
     53 O          33.8975   33.2235    2.2875 O.2       8 UNK        -0.5275 
     54 N          34.8647   31.4543    1.2529 N.am      9 UNK        -0.4246 
     55 CA         35.7578   31.0336    2.3353 C.3       9 UNK         0.0261 
     56 CB         36.9167   30.2131    1.7397 C.3       9 UNK        -0.1959 
     57 C          34.9638   30.2500    3.3990 C.2       9 UNK         0.5033 
     58 O          35.0971   29.0286    3.5041 O.2       9 UNK        -0.5390 
     59 N          34.1143   30.9740    4.1372 N.am      10 UNK        -0.4215 
     60 CA         33.0936   30.4768    5.0623 C.3       10 UNK         0.0240 
     61 CB         32.0912   31.6173    5.3214 C.3       10 UNK        -0.1982 
     62 C          33.6444   29.8684    6.3699 C.2       10 UNK         0.4970 
     63 O          33.1896   30.2379    7.4536 O.2       10 UNK        -0.4916 
     64 N          34.5887   28.9287    6.2453 N.am      11 UNK        -0.4279 
     65 CA         35.1841   28.1267    7.3301 C.3       11 UNK         0.1003 
     66 C          35.9860   28.9427    8.3920 C.2       11 UNK         0.5709 
     67 N          36.4132   30.1655    8.0991 N.am      11 UNK        -0.7358 
     68 O          36.2619   28.4522    9.4848 O.2       11 UNK        -0.4999 
     69 C69        34.1636   27.1315    7.9609 C.3       12 UNK        -0.0954 
     70 S70        33.5730   25.8936    6.7571 S.3       12 UNK        -0.2268 
     71 C71        31.9153   26.5239    6.3570 C.3       12 UNK         0.0203 
     72 H72        32.4013   25.0044   -3.6128 H         1 UNK         0.0888 
     73 H73        31.5304   24.7684   -5.1295 H         1 UNK         0.0888 
     74 H74        32.2826   26.3262   -4.7754 H         1 UNK         0.0888 
     75 H75        31.0334   25.3006   -1.8708 H         1 UNK         0.3017 
     76 H76        28.9255   27.1973   -1.7999 H         1 UNK         0.0873 
     77 H77        28.4650   26.2516    0.4753 H         1 UNK         0.0745 
     78 H78        29.5300   24.9171    0.1491 H         1 UNK         0.0745 
     79 H79        32.7933   26.1406    1.4273 H         1 UNK         0.0705 
     80 H80        31.8455   24.8427    0.7549 H         1 UNK         0.0705 
     81 H81        32.5134   26.8793    3.7272 H         1 UNK         0.1334 
     82 H82        30.0272   24.5525    6.3330 H         1 UNK         0.1417 
     83 H83        29.9345   23.8517    2.1071 H         1 UNK         0.1562 
     84 H84        28.6323   22.8286    5.4952 H         1 UNK         0.0748 
     85 H85        29.1529   22.0854    4.0049 H         1 UNK         0.0748 
     86 H86        27.5010   25.2318    5.2492 H         1 UNK         0.0940 
     87 H87        25.8358   25.1018    4.7802 H         1 UNK         0.0940 
     88 H88        27.9104   25.9512    2.7046 H         1 UNK         0.0703 
     89 H89        25.1469   25.6119    2.5861 H         1 UNK         0.3081 
     90 H90        23.6220   27.0837    1.2718 H         1 UNK         0.0719 
     91 H91        25.0888   27.9611   -1.2702 H         1 UNK         0.0809 
     92 H92        23.3403   27.9278   -1.0453 H         1 UNK         0.0809 
     93 H93        24.3295   29.0263   -0.0970 H         1 UNK         0.0809 
     94 H94        24.7670   25.5360   -0.9672 H         1 UNK         0.2990 
     95 H95        24.0482   22.4037    0.4163 H         1 UNK         0.0690 
     96 H96        22.2875   22.0494   -1.3028 H         1 UNK         0.0788 
     97 H97        22.0687   23.7922   -1.4712 H         1 UNK         0.0788 
     98 H98        21.6566   22.9902    0.0380 H         1 UNK         0.0788 
     99 H99        24.3611   23.4126   -2.3009 H         1 UNK         0.2993 
    100 H100       27.3959   22.1324   -2.6788 H         1 UNK         0.0949 
    101 H101       25.5941   24.3676   -3.7840 H         1 UNK         0.0767 
    102 H102       26.7897   23.4625   -4.6984 H         1 UNK         0.0767 
    103 H103       25.3889   22.6361   -4.0494 H         1 UNK         0.0767 
    104 H104       28.9266   23.7023   -2.3258 H         1 UNK         0.3013 
    105 H105       29.3131   27.0251    4.0147 H         1 UNK         0.3121 
    106 H106       30.3337   28.7523    4.9140 H         1 UNK         0.0774 
    107 H107       29.3065   30.0522    6.7326 H         1 UNK         0.0815 
    108 H108       27.7026   29.4997    6.2879 H         1 UNK         0.0815 
    109 H109       28.8917   28.3562    6.9115 H         1 UNK         0.0815 
    110 H110       29.9662   29.0749    2.3958 H         1 UNK         0.2987 
    111 H111       29.3876   31.9732    1.9974 H         1 UNK         0.0949 
    112 H112       28.9163   31.3610   -0.3847 H         1 UNK         0.0806 
    113 H113       29.1512   29.6562   -0.0180 H         1 UNK         0.0806 
    114 H114       27.7942   30.5304    0.6824 H         1 UNK         0.0806 
    115 H115       30.9048   32.9849    0.5559 H         1 UNK         0.3010 
    116 H116       32.9284   33.6309   -0.0883 H         1 UNK         0.0829 
    117 H117       32.5932   31.9745   -1.8837 H         1 UNK         0.0813 
    118 H118       34.2895   32.0268   -1.4501 H         1 UNK         0.0813 
    119 H119       33.2792   30.6879   -0.9050 H         1 UNK         0.0813 
    120 H120       34.8026   30.8323    0.4600 H         1 UNK         0.3038 
    121 H121       36.1830   31.9183    2.8143 H         1 UNK         0.0769 
    122 H122       37.6035   29.8857    2.5214 H         1 UNK         0.0811 
    123 H123       37.4946   30.8022    1.0274 H         1 UNK         0.0811 
    124 H124       36.5597   29.3200    1.2250 H         1 UNK         0.0811 
    125 H125       34.0625   31.9624    3.9122 H         1 UNK         0.3204 
    126 H126       32.5580   29.6757    4.5494 H         1 UNK         0.0748 
    127 H127       31.6524   31.9798    4.3913 H         1 UNK         0.0771 
    128 H128       31.2687   31.2872    5.9564 H         1 UNK         0.0771 
    129 H129       32.5659   32.4640    5.8188 H         1 UNK         0.0771 
    130 H130       34.9088   28.7167    5.3023 H         1 UNK         0.2980 
    131 H131       35.9511   27.5244    6.8422 H         1 UNK         0.0545 
    132 H132       36.2011   30.5795    7.2061 H         1 UNK         0.3459 
    133 H133       36.9406   30.6817    8.7853 H         1 UNK         0.3459 
    134 H134       33.3184   27.6607    8.4033 H         1 UNK         0.0616 
    135 H135       34.6253   26.5703    8.7748 H         1 UNK         0.0616 
    136 H136       31.9701   27.5884    6.1384 H         1 UNK         0.0634 
    137 H137       31.2687   26.4199    7.2297 H         1 UNK         0.0634 
@<TRIPOS>BOND
     1    1    2 1    
     2    1   72 1    
     3    1   73 1    
     4    1   74 1    
     5    2    3 2    
     6    2    4 am   BACKBONE|DICT|INTERRES
     7    4    5 1    
     8    4   75 1    
     9    5    6 1    
    10    5   35 1    
    11    5   76 1    
    12    6    7 1    
    13    6   77 1    
    14    6   78 1    
    15    7    8 1    
    16    8    9 1    
    17    8   79 1    
    18    8   80 1    
    19    9   10 ar   
    20    9   14 ar   
    21   10   11 ar   
    22   10   81 1    
    23   11   12 ar   
    24   11   71 1    
    25   12   13 ar   
    26   12   82 1    
    27   13   14 ar   
    28   13   15 1    
    29   14   83 1    
    30   15   16 1    
    31   15   84 1    
    32   15   85 1    
    33   16   17 1    
    34   17   18 1    
    35   17   86 1    
    36   17   87 1    
    37   18   19 1    
    38   18   37 1    
    39   18   88 1    
    40   19   20 am   BACKBONE|DICT|INTERRES
    41   19   89 1    
    42   20   21 2    
    43   20   22 1    
    44   22   23 1    
    45   22   24 1    
    46   22   90 1    
    47   23   91 1    
    48   23   92 1    
    49   23   93 1    
    50   24   25 am   BACKBONE|DICT|INTERRES
    51   24   94 1    
    52   25   26 2    
    53   25   27 1    
    54   27   28 1    
    55   27   29 1    
    56   27   95 1    
    57   28   96 1    
    58   28   97 1    
    59   28   98 1    
    60   29   30 am   BACKBONE|DICT|INTERRES
    61   29   99 1    
    62   30   31 2    
    63   30   32 1    
    64   32   33 1    
    65   32   34 1    
    66   32  100 1    
    67   33  101 1    
    68   33  102 1    
    69   33  103 1    
    70   34   35 am   BACKBONE|DICT|INTERRES
    71   34  104 1    
    72   35   36 2    
    73   37   38 2    
    74   37   39 am   BACKBONE|DICT|INTERRES
    75   39   40 1    
    76   39  105 1    
    77   40   41 1    
    78   40   42 1    
    79   40  106 1    
    80   41  107 1    
    81   41  108 1    
    82   41  109 1    
    83   42   43 2    
    84   42   44 am   BACKBONE|DICT|INTERRES
    85   44   45 1    
    86   44  110 1    
    87   45   46 1    
    88   45   47 1    
    89   45  111 1    
    90   46  112 1    
    91   46  113 1    
    92   46  114 1    
    93   47   48 2    
    94   47   49 am   BACKBONE|DICT|INTERRES
    95   49   50 1    
    96   49  115 1    
    97   50   51 1    
    98   50   52 1    
    99   50  116 1    
   100   51  117 1    
   101   51  118 1    
   102   51  119 1    
   103   52   53 2    
   104   52   54 am   BACKBONE|DICT|INTERRES
   105   54   55 1    
   106   54  120 1    
   107   55   56 1    
   108   55   57 1    
   109   55  121 1    
   110   56  122 1    
   111   56  123 1    
   112   56  124 1    
   113   57   58 2    
   114   57   59 am   BACKBONE|DICT|INTERRES
   115   59   60 1    
   116   59  125 1    
   117   60   61 1    
   118   60   62 1    
   119   60  126 1    
   120   61  127 1    
   121   61  128 1    
   122   61  129 1    
   123   62   63 2    
   124   62   64 am   BACKBONE|DICT|INTERRES
   125   64   65 1    
   126   64  130 1    
   127   65   66 1    
   128   65   69 1    
   129   65  131 1    
   130   66   67 am   BACKBONE|DICT|INTERRES
   131   66   68 2    
   132   67  132 1    
   133   67  133 1    
   134   69   70 1    
   135   69  134 1    
   136   69  135 1    
   137   70   71 1    
   138   71  136 1    
   139   71  137 1    
@<TRIPOS>SUBSTRUCTURE
     1 UNK         1 GROUP             0       ****    0 ROOT    
