@<TRIPOS>MOLECULE
3R136
137   139    1
SMALL
USER_CHARGES


@<TRIPOS>ATOM
      1 CA         29.0141   23.1118   -2.8957 C.3       0 UNK        -0.1979 
      2 C          28.7601   22.5642   -1.4995 C.2       0 UNK         0.4864 
      3 O          28.0460   21.5708   -1.3532 O.2       0 UNK        -0.5359 
      4 N          29.3289   23.2164   -0.4756 N.am      1 UNK        -0.4318 
      5 CA         29.2654   22.8921    0.9599 C.3       1 UNK         0.0824 
      6 C6         29.7899   21.4785    1.3442 C.3       12 UNK        -0.0944 
      7 S7         31.3888   21.0427    0.5697 S.3       12 UNK        -0.2672 
      8 C8         32.6078   21.4795    1.8588 C.3       12 UNK         0.0333 
      9 C9         32.7565   22.9793    2.1124 C.ar      12 UNK        -0.0807 
     10 C10        33.0613   23.4266    3.4028 C.ar      12 UNK        -0.0894 
     11 C11        33.2027   24.7917    3.6688 C.ar      12 UNK        -0.0804 
     12 C12        33.0114   25.7167    2.6403 C.ar      12 UNK        -0.0824 
     13 C13        32.7155   25.2872    1.3441 C.ar      12 UNK        -0.0762 
     14 C14        32.6215   23.9180    1.0806 C.ar      12 UNK        -0.0782 
     15 C15        32.4815   26.3035    0.2336 C.3       12 UNK         0.0230 
     16 S16        30.7546   26.2924   -0.3553 S.3       12 UNK        -0.2608 
     17 C17        29.8357   26.7690    1.1486 C.3       12 UNK        -0.0989 
     18 CA         29.2973   28.2165    1.0980 C.3       5 UNK         0.0716 
     19 N          28.3948   28.4181   -0.0391 N.am      5 UNK        -0.4135 
     20 C          27.6924   29.5241   -0.3199 C.2       4 UNK         0.5031 
     21 O          27.8247   30.5897    0.2837 O.2       4 UNK        -0.5229 
     22 CA         26.5997   29.4007   -1.3999 C.3       4 UNK         0.0329 
     23 CB         27.0970   29.9948   -2.7267 C.3       4 UNK        -0.2001 
     24 N          26.1039   28.0335   -1.6337 N.am      4 UNK        -0.4303 
     25 C          25.6102   27.1949   -0.7079 C.2       3 UNK         0.5044 
     26 O          25.5333   27.4754    0.4909 O.2       3 UNK        -0.5152 
     27 CA         25.1876   25.7928   -1.1765 C.3       3 UNK         0.0319 
     28 CB         25.9012   25.3295   -2.4673 C.3       3 UNK        -0.2001 
     29 N          25.4537   24.8500   -0.0920 N.am      3 UNK        -0.4354 
     30 C          24.8806   23.6536    0.0747 C.2       2 UNK         0.4964 
     31 O          24.0120   23.1989   -0.6722 O.2       2 UNK        -0.5047 
     32 CA         25.4221   22.8124    1.2431 C.3       2 UNK         0.0288 
     33 CB         24.6793   21.4737    1.4134 C.3       2 UNK        -0.2113 
     34 N          26.8361   22.5408    0.9912 N.am      2 UNK        -0.4145 
     35 C          27.8702   23.1748    1.5544 C.2       1 UNK         0.5006 
     36 O          27.7508   23.9992    2.4613 O.2       1 UNK        -0.5103 
     37 C          28.6559   28.5700    2.4584 C.2       5 UNK         0.5055 
     38 O          29.3679   29.0418    3.3415 O.2       5 UNK        -0.5220 
     39 N          27.3353   28.3771    2.6059 N.am      6 UNK        -0.4450 
     40 CA         26.5818   28.7460    3.8077 C.3       6 UNK         0.0367 
     41 CB         25.1693   28.1460    3.7268 C.3       6 UNK        -0.1929 
     42 C          26.5088   30.2669    4.0439 C.2       6 UNK         0.5070 
     43 O          26.3959   30.6874    5.1955 O.2       6 UNK        -0.5237 
     44 N          26.5786   31.0599    2.9657 N.am      7 UNK        -0.4739 
     45 CA         26.6195   32.5216    3.0147 C.3       7 UNK         0.0276 
     46 CB         25.8456   33.0959    1.8163 C.3       7 UNK        -0.1927 
     47 C          28.0663   33.0369    3.0235 C.2       7 UNK         0.5013 
     48 O          28.3730   33.9593    3.7794 O.2       7 UNK        -0.5193 
     49 N          28.9263   32.4406    2.1844 N.am      8 UNK        -0.4253 
     50 CA         30.3324   32.8236    2.0224 C.3       8 UNK         0.0242 
     51 CB         30.8748   32.2078    0.7225 C.3       8 UNK        -0.2000 
     52 C          31.2324   32.4367    3.2096 C.2       8 UNK         0.4948 
     53 O          32.2700   33.0733    3.4028 O.2       8 UNK        -0.5275 
     54 N          30.8463   31.3943    3.9592 N.am      9 UNK        -0.4246 
     55 CA         31.5576   30.7454    5.0657 C.3       9 UNK         0.0261 
     56 CB         31.8450   31.7117    6.2333 C.3       9 UNK        -0.1959 
     57 C          32.8164   30.0006    4.5966 C.2       9 UNK         0.5033 
     58 O          32.8579   28.7743    4.6934 O.2       9 UNK        -0.5390 
     59 N          33.8063   30.7500    4.0921 N.am      10 UNK        -0.4215 
     60 CA         35.1166   30.3416    3.5630 C.3       10 UNK         0.0240 
     61 CB         34.9614   29.4924    2.2865 C.3       10 UNK        -0.1982 
     62 C          36.0490   29.6531    4.5799 C.2       10 UNK         0.4970 
     63 O          37.2014   30.0679    4.7107 O.2       10 UNK        -0.4916 
     64 N          35.5493   28.6222    5.2678 N.am      11 UNK        -0.4279 
     65 CA         36.2412   27.8778    6.3275 C.3       11 UNK         0.1003 
     66 C          36.4605   28.7365    7.6027 C.2       11 UNK         0.5709 
     67 N          37.5482   28.5056    8.3254 N.am      11 UNK        -0.7358 
     68 O          35.6388   29.5778    7.9639 O.2       11 UNK        -0.4999 
     69 C69        35.5033   26.5570    6.6740 C.3       12 UNK        -0.0954 
     70 S70        35.3689   25.4387    5.2379 S.3       12 UNK        -0.2268 
     71 C71        33.5650   25.2778    5.0627 C.3       12 UNK         0.0203 
     72 H72        28.0719   23.2394   -3.4277 H         1 UNK         0.0888 
     73 H73        29.5220   24.0760   -2.8695 H         1 UNK         0.0888 
     74 H74        29.6326   22.4160   -3.4618 H         1 UNK         0.0888 
     75 H75        29.8743   24.0435   -0.6821 H         1 UNK         0.3017 
     76 H76        29.9305   23.6112    1.4380 H         1 UNK         0.0873 
     77 H77        29.8854   21.3936    2.4282 H         1 UNK         0.0745 
     78 H78        29.0722   20.7117    1.0474 H         1 UNK         0.0745 
     79 H79        33.5802   21.0872    1.5589 H         1 UNK         0.0705 
     80 H80        32.3379   20.9609    2.7802 H         1 UNK         0.0705 
     81 H81        33.1981   22.7116    4.2028 H         1 UNK         0.1334 
     82 H82        33.0908   26.7728    2.8560 H         1 UNK         0.1417 
     83 H83        32.4065   23.5897    0.0732 H         1 UNK         0.1562 
     84 H84        33.1433   26.0785   -0.6038 H         1 UNK         0.0748 
     85 H85        32.7376   27.3113    0.5652 H         1 UNK         0.0748 
     86 H86        30.4696   26.6327    2.0258 H         1 UNK         0.0940 
     87 H87        29.0106   26.0667    1.2729 H         1 UNK         0.0940 
     88 H88        30.1437   28.8905    0.9582 H         1 UNK         0.0703 
     89 H89        28.2411   27.6083   -0.6199 H         1 UNK         0.3081 
     90 H90        25.7505   29.9948   -1.0563 H         1 UNK         0.0719 
     91 H91        27.9255   29.4194   -3.1419 H         1 UNK         0.0809 
     92 H92        26.3017   30.0268   -3.4716 H         1 UNK         0.0809 
     93 H93        27.4485   31.0187   -2.5889 H         1 UNK         0.0809 
     94 H94        26.1365   27.7087   -2.5894 H         1 UNK         0.2990 
     95 H95        24.1112   25.8276   -1.3559 H         1 UNK         0.0690 
     96 H96        26.9862   25.3650   -2.3628 H         1 UNK         0.0788 
     97 H97        25.6251   25.9473   -3.3224 H         1 UNK         0.0788 
     98 H98        25.6299   24.3058   -2.7260 H         1 UNK         0.0788 
     99 H99        26.0975   25.1840    0.6132 H         1 UNK         0.2993 
    100 H100       25.2950   23.3925    2.1599 H         1 UNK         0.0949 
    101 H101       24.7659   20.8464    0.5251 H         1 UNK         0.0767 
    102 H102       25.0727   20.9098    2.2594 H         1 UNK         0.0767 
    103 H103       23.6168   21.6371    1.5983 H         1 UNK         0.0767 
    104 H104       27.0489   21.9598    0.1817 H         1 UNK         0.3013 
    105 H105       26.7917   28.0075    1.8292 H         1 UNK         0.3121 
    106 H106       27.0900   28.3054    4.6683 H         1 UNK         0.0774 
    107 H107       24.6012   28.3613    4.6327 H         1 UNK         0.0815 
    108 H108       24.6071   28.5518    2.8847 H         1 UNK         0.0815 
    109 H109       25.2037   27.0621    3.6149 H         1 UNK         0.0815 
    110 H110       26.7179   30.6353    2.0564 H         1 UNK         0.2987 
    111 H111       26.1336   32.8756    3.9270 H         1 UNK         0.0949 
    112 H112       26.2770   32.7856    0.8638 H         1 UNK         0.0806 
    113 H113       24.8033   32.7773    1.8302 H         1 UNK         0.0806 
    114 H114       25.8509   34.1866    1.8363 H         1 UNK         0.0806 
    115 H115       28.5712   31.7216    1.5577 H         1 UNK         0.3010 
    116 H116       30.3747   33.9107    1.9258 H         1 UNK         0.0829 
    117 H117       31.9052   32.5181    0.5431 H         1 UNK         0.0813 
    118 H118       30.8643   31.1188    0.7569 H         1 UNK         0.0813 
    119 H119       30.2871   32.5206   -0.1409 H         1 UNK         0.0813 
    120 H120       30.0261   30.8779    3.6549 H         1 UNK         0.3038 
    121 H121       30.8720   29.9854    5.4444 H         1 UNK         0.0769 
    122 H122       32.3033   31.1807    7.0687 H         1 UNK         0.0811 
    123 H123       30.9251   32.1647    6.6029 H         1 UNK         0.0811 
    124 H124       32.5235   32.5177    5.9545 H         1 UNK         0.0811 
    125 H125       33.6025   31.7439    4.0214 H         1 UNK         0.3204 
    126 H126       35.6094   31.2710    3.2726 H         1 UNK         0.0748 
    127 H127       35.9334   29.2843    1.8374 H         1 UNK         0.0771 
    128 H128       34.4894   28.5328    2.4911 H         1 UNK         0.0771 
    129 H129       34.3608   30.0084    1.5373 H         1 UNK         0.0771 
    130 H130       34.5682   28.3973    5.1184 H         1 UNK         0.2980 
    131 H131       37.2268   27.6164    5.9369 H         1 UNK         0.0545 
    132 H132       37.7010   29.0423    9.1650 H         1 UNK         0.3459 
    133 H133       38.2221   27.8094    8.0466 H         1 UNK         0.3459 
    134 H134       36.0396   26.0162    7.4559 H         1 UNK         0.0616 
    135 H135       34.5111   26.7675    7.0776 H         1 UNK         0.0616 
    136 H136       33.1886   24.5889    5.8203 H         1 UNK         0.0634 
    137 H137       33.0837   26.2372    5.2525 H         1 UNK         0.0634 
@<TRIPOS>BOND
     1    1    2 1    
     2    1   72 1    
     3    1   73 1    
     4    1   74 1    
     5    2    3 2    
     6    2    4 am   BACKBONE|DICT|INTERRES
     7    4    5 1    
     8    4   75 1    
     9    5    6 1    
    10    5   35 1    
    11    5   76 1    
    12    6    7 1    
    13    6   77 1    
    14    6   78 1    
    15    7    8 1    
    16    8    9 1    
    17    8   79 1    
    18    8   80 1    
    19    9   10 ar   
    20    9   14 ar   
    21   10   11 ar   
    22   10   81 1    
    23   11   12 ar   
    24   11   71 1    
    25   12   13 ar   
    26   12   82 1    
    27   13   14 ar   
    28   13   15 1    
    29   14   83 1    
    30   15   16 1    
    31   15   84 1    
    32   15   85 1    
    33   16   17 1    
    34   17   18 1    
    35   17   86 1    
    36   17   87 1    
    37   18   19 1    
    38   18   37 1    
    39   18   88 1    
    40   19   20 am   BACKBONE|DICT|INTERRES
    41   19   89 1    
    42   20   21 2    
    43   20   22 1    
    44   22   23 1    
    45   22   24 1    
    46   22   90 1    
    47   23   91 1    
    48   23   92 1    
    49   23   93 1    
    50   24   25 am   BACKBONE|DICT|INTERRES
    51   24   94 1    
    52   25   26 2    
    53   25   27 1    
    54   27   28 1    
    55   27   29 1    
    56   27   95 1    
    57   28   96 1    
    58   28   97 1    
    59   28   98 1    
    60   29   30 am   BACKBONE|DICT|INTERRES
    61   29   99 1    
    62   30   31 2    
    63   30   32 1    
    64   32   33 1    
    65   32   34 1    
    66   32  100 1    
    67   33  101 1    
    68   33  102 1    
    69   33  103 1    
    70   34   35 am   BACKBONE|DICT|INTERRES
    71   34  104 1    
    72   35   36 2    
    73   37   38 2    
    74   37   39 am   BACKBONE|DICT|INTERRES
    75   39   40 1    
    76   39  105 1    
    77   40   41 1    
    78   40   42 1    
    79   40  106 1    
    80   41  107 1    
    81   41  108 1    
    82   41  109 1    
    83   42   43 2    
    84   42   44 am   BACKBONE|DICT|INTERRES
    85   44   45 1    
    86   44  110 1    
    87   45   46 1    
    88   45   47 1    
    89   45  111 1    
    90   46  112 1    
    91   46  113 1    
    92   46  114 1    
    93   47   48 2    
    94   47   49 am   BACKBONE|DICT|INTERRES
    95   49   50 1    
    96   49  115 1    
    97   50   51 1    
    98   50   52 1    
    99   50  116 1    
   100   51  117 1    
   101   51  118 1    
   102   51  119 1    
   103   52   53 2    
   104   52   54 am   BACKBONE|DICT|INTERRES
   105   54   55 1    
   106   54  120 1    
   107   55   56 1    
   108   55   57 1    
   109   55  121 1    
   110   56  122 1    
   111   56  123 1    
   112   56  124 1    
   113   57   58 2    
   114   57   59 am   BACKBONE|DICT|INTERRES
   115   59   60 1    
   116   59  125 1    
   117   60   61 1    
   118   60   62 1    
   119   60  126 1    
   120   61  127 1    
   121   61  128 1    
   122   61  129 1    
   123   62   63 2    
   124   62   64 am   BACKBONE|DICT|INTERRES
   125   64   65 1    
   126   64  130 1    
   127   65   66 1    
   128   65   69 1    
   129   65  131 1    
   130   66   67 am   BACKBONE|DICT|INTERRES
   131   66   68 2    
   132   67  132 1    
   133   67  133 1    
   134   69   70 1    
   135   69  134 1    
   136   69  135 1    
   137   70   71 1    
   138   71  136 1    
   139   71  137 1    
@<TRIPOS>SUBSTRUCTURE
     1 UNK         1 GROUP             0       ****    0 ROOT    
