@<TRIPOS>MOLECULE
3R136
137   139    1
SMALL
USER_CHARGES


@<TRIPOS>ATOM
      1 CA         29.5864   21.1622    3.0152 C.3       0 UNK        -0.1979 
      2 C          28.6537   22.2786    2.5742 C.2       0 UNK         0.4864 
      3 O          28.4951   22.5076    1.3743 O.2       0 UNK        -0.5359 
      4 N          28.0188   22.9712    3.5312 N.am      1 UNK        -0.4318 
      5 CA         27.2114   24.1800    3.3054 C.3       1 UNK         0.0824 
      6 C6         26.9427   24.9866    4.6002 C.3       12 UNK        -0.0944 
      7 S7         28.4194   25.2714    5.6445 S.3       12 UNK        -0.2672 
      8 C8         29.4440   26.4109    4.6517 C.3       12 UNK         0.0333 
      9 C9         30.4193   25.6574    3.7562 C.ar      12 UNK        -0.0807 
     10 C10        31.5166   24.9922    4.3102 C.ar      12 UNK        -0.0894 
     11 C11        32.4042   24.2817    3.4944 C.ar      12 UNK        -0.0804 
     12 C12        32.1631   24.2005    2.1193 C.ar      12 UNK        -0.0824 
     13 C13        31.0717   24.8651    1.5550 C.ar      12 UNK        -0.0762 
     14 C14        30.2275   25.6185    2.3737 C.ar      12 UNK        -0.0782 
     15 C15        30.7697   24.7282    0.0709 C.3       12 UNK         0.0230 
     16 S16        31.8444   25.7599   -0.9709 S.3       12 UNK        -0.2608 
     17 C17        31.3697   27.4522   -0.4901 C.3       12 UNK        -0.0989 
     18 CA         30.2981   28.0731   -1.4323 C.3       5 UNK         0.0716 
     19 N          28.9690   27.4577   -1.2952 N.am      5 UNK        -0.4135 
     20 C          28.1145   27.6094   -0.2726 C.2       4 UNK         0.5031 
     21 O          28.3875   28.2106    0.7662 O.2       4 UNK        -0.5229 
     22 CA         26.7067   27.0112   -0.4228 C.3       4 UNK         0.0329 
     23 CB         25.8670   27.7998   -1.4467 C.3       4 UNK        -0.2001 
     24 N          26.6702   25.5674   -0.6830 N.am      4 UNK        -0.4303 
     25 C          27.0790   24.8906   -1.7673 C.2       3 UNK         0.5044 
     26 O          27.6103   25.4270   -2.7413 O.2       3 UNK        -0.5152 
     27 CA         26.8705   23.3610   -1.7767 C.3       3 UNK         0.0319 
     28 CB         28.1894   22.6217   -2.0597 C.3       3 UNK        -0.2001 
     29 N          26.3007   22.8518   -0.5241 N.am      3 UNK        -0.4354 
     30 C          24.9873   22.7500   -0.2609 C.2       2 UNK         0.4964 
     31 O          24.1069   22.9988   -1.0846 O.2       2 UNK        -0.5047 
     32 CA         24.5762   22.3371    1.1693 C.3       2 UNK         0.0288 
     33 CB         24.3244   20.8225    1.2408 C.3       2 UNK        -0.2113 
     34 N          25.5627   22.7101    2.1880 N.am      2 UNK        -0.4145 
     35 C          25.9312   23.9686    2.4694 C.2       1 UNK         0.5006 
     36 O          25.3471   24.9544    2.0182 O.2       1 UNK        -0.5103 
     37 C          30.1796   29.6085   -1.2914 C.2       5 UNK         0.5055 
     38 O          29.6392   30.2579   -2.1890 O.2       5 UNK        -0.5220 
     39 N          30.6427   30.1460   -0.1586 N.am      6 UNK        -0.4450 
     40 CA         30.4579   31.5223    0.2771 C.3       6 UNK         0.0367 
     41 CB         31.6328   32.3928   -0.2103 C.3       6 UNK        -0.1929 
     42 C          30.3192   31.4829    1.8034 C.2       6 UNK         0.5070 
     43 O          31.1563   32.0505    2.5026 O.2       6 UNK        -0.5237 
     44 N          29.2886   30.7640    2.2802 N.am      7 UNK        -0.4739 
     45 CA         29.0366   30.3374    3.6673 C.3       7 UNK         0.0276 
     46 CB         27.6035   29.7899    3.7757 C.3       7 UNK        -0.1927 
     47 C          29.2845   31.3660    4.7857 C.2       7 UNK         0.5013 
     48 O          29.7035   30.9671    5.8726 O.2       7 UNK        -0.5193 
     49 N          29.0812   32.6608    4.5041 N.am      8 UNK        -0.4253 
     50 CA         29.4251   33.7787    5.3930 C.3       8 UNK         0.0242 
     51 CB         28.9523   35.0945    4.7542 C.3       8 UNK        -0.2000 
     52 C          30.9256   33.8623    5.7491 C.2       8 UNK         0.4948 
     53 O          31.2601   34.3757    6.8173 O.2       8 UNK        -0.5275 
     54 N          31.7896   33.3385    4.8701 N.am      9 UNK        -0.4246 
     55 CA         33.2311   33.1780    5.0586 C.3       9 UNK         0.0261 
     56 CB         33.9577   33.9038    3.9109 C.3       9 UNK        -0.1959 
     57 C          33.6222   31.6864    5.1279 C.2       9 UNK         0.5033 
     58 O          34.7909   31.3634    4.9081 O.2       9 UNK        -0.5390 
     59 N          32.6554   30.8086    5.4410 N.am      10 UNK        -0.4215 
     60 CA         32.7605   29.3484    5.5116 C.3       10 UNK         0.0240 
     61 CB         33.6956   28.9104    6.6639 C.3       10 UNK        -0.1982 
     62 C          33.0801   28.7169    4.1406 C.2       10 UNK         0.4970 
     63 O          32.4021   29.0329    3.1610 O.2       10 UNK        -0.4916 
     64 N          34.0465   27.7928    4.1091 N.am      11 UNK        -0.4279 
     65 CA         34.4090   26.9855    2.9377 C.3       11 UNK         0.1003 
     66 C          35.0406   27.8138    1.7870 C.2       11 UNK         0.5709 
     67 N          34.8255   27.4093    0.5423 N.am      11 UNK        -0.7358 
     68 O          35.7657   28.7811    2.0110 O.2       11 UNK        -0.4999 
     69 C69        35.3214   25.7830    3.3168 C.3       12 UNK        -0.0954 
     70 S70        34.7824   24.8510    4.7962 S.3       12 UNK        -0.2268 
     71 C71        33.6345   23.6211    4.0967 C.3       12 UNK         0.0203 
     72 H72        30.6031   21.3807    2.6896 H         1 UNK         0.0888 
     73 H73        29.5955   21.0430    4.0984 H         1 UNK         0.0888 
     74 H74        29.2793   20.2168    2.5692 H         1 UNK         0.0888 
     75 H75        28.1869   22.7443    4.5013 H         1 UNK         0.3017 
     76 H76        27.8053   24.8213    2.6629 H         1 UNK         0.0873 
     77 H77        26.2050   24.4673    5.2146 H         1 UNK         0.0745 
     78 H78        26.5042   25.9576    4.3609 H         1 UNK         0.0745 
     79 H79        28.8019   27.0696    4.0660 H         1 UNK         0.0705 
     80 H80        30.0086   27.0553    5.3269 H         1 UNK         0.0705 
     81 H81        31.6880   25.0376    5.3770 H         1 UNK         0.1334 
     82 H82        32.8285   23.6319    1.4842 H         1 UNK         0.1417 
     83 H83        29.3960   26.1487    1.9349 H         1 UNK         0.1562 
     84 H84        29.7253   24.9644   -0.1330 H         1 UNK         0.0748 
     85 H85        30.9019   23.6855   -0.2207 H         1 UNK         0.0748 
     86 H86        32.2902   28.0372   -0.5351 H         1 UNK         0.0940 
     87 H87        31.0527   27.4768    0.5525 H         1 UNK         0.0940 
     88 H88        30.6138   27.8945   -2.4615 H         1 UNK         0.0703 
     89 H89        28.6427   26.9101   -2.0869 H         1 UNK         0.3081 
     90 H90        26.2198   27.1364    0.5459 H         1 UNK         0.0719 
     91 H91        26.2705   27.7272   -2.4569 H         1 UNK         0.0809 
     92 H92        24.8377   27.4420   -1.4716 H         1 UNK         0.0809 
     93 H93        25.8349   28.8591   -1.1880 H         1 UNK         0.0809 
     94 H94        26.2458   25.0286    0.0619 H         1 UNK         0.2990 
     95 H95        26.1862   23.1424   -2.5990 H         1 UNK         0.0690 
     96 H96        28.0302   21.5459   -2.1344 H         1 UNK         0.0788 
     97 H97        28.9252   22.7946   -1.2755 H         1 UNK         0.0788 
     98 H98        28.6323   22.9480   -3.0017 H         1 UNK         0.0788 
     99 H99        26.9742   22.6327    0.2079 H         1 UNK         0.2993 
    100 H100       23.6430   22.8546    1.4026 H         1 UNK         0.0949 
    101 H101       23.9572   20.5268    2.2239 H         1 UNK         0.0767 
    102 H102       23.5731   20.5172    0.5108 H         1 UNK         0.0767 
    103 H103       25.2310   20.2521    1.0339 H         1 UNK         0.0767 
    104 H104       26.1077   21.9609    2.5895 H         1 UNK         0.3013 
    105 H105       31.0224   29.5300    0.5490 H         1 UNK         0.3121 
    106 H106       29.5261   31.9235   -0.1276 H         1 UNK         0.0774 
    107 H107       31.5194   33.4239    0.1264 H         1 UNK         0.0815 
    108 H108       32.5883   32.0276    0.1685 H         1 UNK         0.0815 
    109 H109       31.6881   32.4102   -1.2987 H         1 UNK         0.0815 
    110 H110       28.7142   30.2911    1.5919 H         1 UNK         0.2987 
    111 H111       29.7260   29.5117    3.8531 H         1 UNK         0.0949 
    112 H112       26.8629   30.5532    3.5341 H         1 UNK         0.0806 
    113 H113       27.4431   28.9456    3.1061 H         1 UNK         0.0806 
    114 H114       27.3923   29.4379    4.7867 H         1 UNK         0.0806 
    115 H115       28.7578   32.8959    3.5769 H         1 UNK         0.3010 
    116 H116       28.8790   33.6341    6.3275 H         1 UNK         0.0829 
    117 H117       27.8760   35.0886    4.5808 H         1 UNK         0.0813 
    118 H118       29.1690   35.9436    5.4040 H         1 UNK         0.0813 
    119 H119       29.4472   35.2798    3.8000 H         1 UNK         0.0813 
    120 H120       31.4259   32.9234    4.0098 H         1 UNK         0.3038 
    121 H121       33.5433   33.6296    6.0021 H         1 UNK         0.0769 
    122 H122       35.0400   33.8636    4.0399 H         1 UNK         0.0811 
    123 H123       33.6774   34.9562    3.8677 H         1 UNK         0.0811 
    124 H124       33.7249   33.4546    2.9442 H         1 UNK         0.0811 
    125 H125       31.7193   31.1693    5.5920 H         1 UNK         0.3204 
    126 H126       31.7594   28.9963    5.7639 H         1 UNK         0.0748 
    127 H127       33.6536   27.8316    6.8211 H         1 UNK         0.0771 
    128 H128       34.7356   29.1810    6.4778 H         1 UNK         0.0771 
    129 H129       33.3991   29.3762    7.6039 H         1 UNK         0.0771 
    130 H130       34.5622   27.5962    4.9528 H         1 UNK         0.2980 
    131 H131       33.4712   26.5898    2.5493 H         1 UNK         0.0545 
    132 H132       34.2473   26.6074    0.3446 H         1 UNK         0.3459 
    133 H133       35.2519   27.9186   -0.2153 H         1 UNK         0.3459 
    134 H134       36.3358   26.1327    3.5177 H         1 UNK         0.0616 
    135 H135       35.4033   25.0908    2.4769 H         1 UNK         0.0616 
    136 H136       33.3218   22.9387    4.8880 H         1 UNK         0.0634 
    137 H137       34.1619   23.0172    3.3567 H         1 UNK         0.0634 
@<TRIPOS>BOND
     1    1    2 1    
     2    1   72 1    
     3    1   73 1    
     4    1   74 1    
     5    2    3 2    
     6    2    4 am   BACKBONE|DICT|INTERRES
     7    4    5 1    
     8    4   75 1    
     9    5    6 1    
    10    5   35 1    
    11    5   76 1    
    12    6    7 1    
    13    6   77 1    
    14    6   78 1    
    15    7    8 1    
    16    8    9 1    
    17    8   79 1    
    18    8   80 1    
    19    9   10 ar   
    20    9   14 ar   
    21   10   11 ar   
    22   10   81 1    
    23   11   12 ar   
    24   11   71 1    
    25   12   13 ar   
    26   12   82 1    
    27   13   14 ar   
    28   13   15 1    
    29   14   83 1    
    30   15   16 1    
    31   15   84 1    
    32   15   85 1    
    33   16   17 1    
    34   17   18 1    
    35   17   86 1    
    36   17   87 1    
    37   18   19 1    
    38   18   37 1    
    39   18   88 1    
    40   19   20 am   BACKBONE|DICT|INTERRES
    41   19   89 1    
    42   20   21 2    
    43   20   22 1    
    44   22   23 1    
    45   22   24 1    
    46   22   90 1    
    47   23   91 1    
    48   23   92 1    
    49   23   93 1    
    50   24   25 am   BACKBONE|DICT|INTERRES
    51   24   94 1    
    52   25   26 2    
    53   25   27 1    
    54   27   28 1    
    55   27   29 1    
    56   27   95 1    
    57   28   96 1    
    58   28   97 1    
    59   28   98 1    
    60   29   30 am   BACKBONE|DICT|INTERRES
    61   29   99 1    
    62   30   31 2    
    63   30   32 1    
    64   32   33 1    
    65   32   34 1    
    66   32  100 1    
    67   33  101 1    
    68   33  102 1    
    69   33  103 1    
    70   34   35 am   BACKBONE|DICT|INTERRES
    71   34  104 1    
    72   35   36 2    
    73   37   38 2    
    74   37   39 am   BACKBONE|DICT|INTERRES
    75   39   40 1    
    76   39  105 1    
    77   40   41 1    
    78   40   42 1    
    79   40  106 1    
    80   41  107 1    
    81   41  108 1    
    82   41  109 1    
    83   42   43 2    
    84   42   44 am   BACKBONE|DICT|INTERRES
    85   44   45 1    
    86   44  110 1    
    87   45   46 1    
    88   45   47 1    
    89   45  111 1    
    90   46  112 1    
    91   46  113 1    
    92   46  114 1    
    93   47   48 2    
    94   47   49 am   BACKBONE|DICT|INTERRES
    95   49   50 1    
    96   49  115 1    
    97   50   51 1    
    98   50   52 1    
    99   50  116 1    
   100   51  117 1    
   101   51  118 1    
   102   51  119 1    
   103   52   53 2    
   104   52   54 am   BACKBONE|DICT|INTERRES
   105   54   55 1    
   106   54  120 1    
   107   55   56 1    
   108   55   57 1    
   109   55  121 1    
   110   56  122 1    
   111   56  123 1    
   112   56  124 1    
   113   57   58 2    
   114   57   59 am   BACKBONE|DICT|INTERRES
   115   59   60 1    
   116   59  125 1    
   117   60   61 1    
   118   60   62 1    
   119   60  126 1    
   120   61  127 1    
   121   61  128 1    
   122   61  129 1    
   123   62   63 2    
   124   62   64 am   BACKBONE|DICT|INTERRES
   125   64   65 1    
   126   64  130 1    
   127   65   66 1    
   128   65   69 1    
   129   65  131 1    
   130   66   67 am   BACKBONE|DICT|INTERRES
   131   66   68 2    
   132   67  132 1    
   133   67  133 1    
   134   69   70 1    
   135   69  134 1    
   136   69  135 1    
   137   70   71 1    
   138   71  136 1    
   139   71  137 1    
@<TRIPOS>SUBSTRUCTURE
     1 UNK         1 GROUP             0       ****    0 ROOT    
