@<TRIPOS>MOLECULE
3R136
137   139    1
SMALL
USER_CHARGES


@<TRIPOS>ATOM
      1 CA         32.9869   20.6444   -3.5323 C.3       0 UNK        -0.1979 
      2 C          32.0752   21.6860   -2.8999 C.2       0 UNK         0.4864 
      3 O          31.5388   22.5391   -3.6092 O.2       0 UNK        -0.5359 
      4 N          31.9038   21.6275   -1.5726 N.am      1 UNK        -0.4318 
      5 CA         31.0097   22.5010   -0.8052 C.3       1 UNK         0.0824 
      6 C6         31.4181   22.5385    0.6890 C.3       12 UNK        -0.0944 
      7 S7         30.9670   24.1133    1.4909 S.3       12 UNK        -0.2672 
      8 C8         30.0379   23.5129    2.9375 C.3       12 UNK         0.0333 
      9 C9         29.7332   24.6297    3.9274 C.ar      12 UNK        -0.0807 
     10 C10        30.7759   25.3767    4.4830 C.ar      12 UNK        -0.0894 
     11 C11        30.5214   26.3925    5.4120 C.ar      12 UNK        -0.0804 
     12 C12        29.1988   26.6429    5.7929 C.ar      12 UNK        -0.0824 
     13 C13        28.1459   25.8895    5.2630 C.ar      12 UNK        -0.0762 
     14 C14        28.4181   24.8924    4.3209 C.ar      12 UNK        -0.0782 
     15 C15        26.7189   26.1196    5.7413 C.3       12 UNK         0.0230 
     16 S16        25.6713   26.8887    4.4691 S.3       12 UNK        -0.2608 
     17 C17        26.3501   28.5810    4.3799 C.3       12 UNK        -0.0989 
     18 CA         27.1564   28.8265    3.0821 C.3       5 UNK         0.0716 
     19 N          26.3736   28.5261    1.8776 N.am      5 UNK        -0.4135 
     20 C          26.8233   28.5530    0.6174 C.2       4 UNK         0.5031 
     21 O          27.9617   28.9156    0.3133 O.2       4 UNK        -0.5229 
     22 CA         25.8289   28.1071   -0.4750 C.3       4 UNK         0.0329 
     23 CB         26.4162   28.2347   -1.8929 C.3       4 UNK        -0.2001 
     24 N          25.3816   26.7270   -0.2712 N.am      4 UNK        -0.4303 
     25 C          24.5124   26.3110    0.6608 C.2       3 UNK         0.5044 
     26 O          23.9114   27.0862    1.4065 O.2       3 UNK        -0.5152 
     27 CA         24.2718   24.7930    0.8060 C.3       3 UNK         0.0319 
     28 CB         22.8064   24.4451    0.4933 C.3       3 UNK        -0.2001 
     29 N          25.1439   23.9456   -0.0175 N.am      3 UNK        -0.4354 
     30 C          26.4653   23.7930    0.1446 C.2       2 UNK         0.4964 
     31 O          27.1149   24.3592    1.0256 O.2       2 UNK        -0.5047 
     32 CA         27.1758   22.8801   -0.8659 C.3       2 UNK         0.0288 
     33 CB         26.7796   23.1912   -2.3258 C.3       2 UNK        -0.2113 
     34 N          28.6208   23.0274   -0.7142 N.am      2 UNK        -0.4145 
     35 C          29.5322   22.0924   -0.9979 C.2       1 UNK         0.5006 
     36 O          29.2457   20.9546   -1.3840 O.2       1 UNK        -0.5103 
     37 C          27.7466   30.2513    3.0750 C.2       5 UNK         0.5055 
     38 O          28.8521   30.4486    3.5766 O.2       5 UNK        -0.5220 
     39 N          27.0252   31.2095    2.4745 N.am      6 UNK        -0.4450 
     40 CA         27.4720   32.5920    2.2848 C.3       6 UNK         0.0367 
     41 CB         26.2835   33.4517    1.8257 C.3       6 UNK        -0.1929 
     42 C          28.6464   32.7281    1.2975 C.2       6 UNK         0.5070 
     43 O          29.4529   33.6447    1.4532 O.2       6 UNK        -0.5237 
     44 N          28.7298   31.8242    0.3102 N.am      7 UNK        -0.4739 
     45 CA         29.8429   31.7486   -0.6389 C.3       7 UNK         0.0276 
     46 CB         29.3690   31.1008   -1.9503 C.3       7 UNK        -0.1927 
     47 C          31.0295   30.9750   -0.0446 C.2       7 UNK         0.5013 
     48 O          32.1760   31.3515   -0.2896 O.2       7 UNK        -0.5193 
     49 N          30.7334   29.9232    0.7346 N.am      8 UNK        -0.4253 
     50 CA         31.7140   29.1317    1.4838 C.3       8 UNK         0.0242 
     51 CB         31.0252   27.8838    2.0551 C.3       8 UNK        -0.2000 
     52 C          32.4049   29.9470    2.5942 C.2       8 UNK         0.4948 
     53 O          33.6151   29.8079    2.7840 O.2       8 UNK        -0.5275 
     54 N          31.6296   30.8116    3.2669 N.am      9 UNK        -0.4246 
     55 CA         32.0410   31.8209    4.2439 C.3       9 UNK         0.0261 
     56 CB         32.8194   32.9578    3.5431 C.3       9 UNK        -0.1959 
     57 C          32.7727   31.1999    5.4459 C.2       9 UNK         0.5033 
     58 O          32.1234   30.5729    6.2836 O.2       9 UNK        -0.5390 
     59 N          34.0962   31.3894    5.5191 N.am      10 UNK        -0.4215 
     60 CA         34.9592   30.8338    6.5623 C.3       10 UNK         0.0240 
     61 CB         36.2891   31.6059    6.5779 C.3       10 UNK        -0.1982 
     62 C          35.2171   29.3234    6.4084 C.2       10 UNK         0.4970 
     63 O          35.5252   28.6826    7.4141 O.2       10 UNK        -0.4916 
     64 N          35.0982   28.8029    5.1751 N.am      11 UNK        -0.4279 
     65 CA         35.3512   27.4142    4.7509 C.3       11 UNK         0.1003 
     66 C          36.6314   26.7528    5.3488 C.2       11 UNK         0.5709 
     67 N          36.5798   25.5013    5.7867 N.am      11 UNK        -0.7358 
     68 O          37.7014   27.3591    5.3546 O.2       11 UNK        -0.4999 
     69 C69        34.0652   26.5366    4.7235 C.3       12 UNK        -0.0954 
     70 S70        33.2005   26.3497    6.3226 S.3       12 UNK        -0.2268 
     71 C71        31.6434   27.2502    5.9995 C.3       12 UNK         0.0203 
     72 H72        32.4313   20.0517   -4.2585 H         1 UNK         0.0888 
     73 H73        33.8124   21.1324   -4.0499 H         1 UNK         0.0888 
     74 H74        33.4065   19.9651   -2.7904 H         1 UNK         0.0888 
     75 H75        32.3423   20.8823   -1.0508 H         1 UNK         0.3017 
     76 H76        31.1253   23.5065   -1.2177 H         1 UNK         0.0873 
     77 H77        31.0078   21.6875    1.2367 H         1 UNK         0.0745 
     78 H78        32.5021   22.4534    0.7842 H         1 UNK         0.0745 
     79 H79        29.1195   23.0345    2.5931 H         1 UNK         0.0705 
     80 H80        30.6204   22.7454    3.4491 H         1 UNK         0.0705 
     81 H81        31.7876   25.1614    4.1743 H         1 UNK         0.1334 
     82 H82        28.9890   27.4210    6.5142 H         1 UNK         0.1417 
     83 H83        27.6039   24.3152    3.9030 H         1 UNK         0.1562 
     84 H84        26.7005   26.7308    6.6451 H         1 UNK         0.0748 
     85 H85        26.2801   25.1601    6.0186 H         1 UNK         0.0748 
     86 H86        26.9721   28.7678    5.2577 H         1 UNK         0.0940 
     87 H87        25.5143   29.2800    4.4498 H         1 UNK         0.0940 
     88 H88        28.0005   28.1341    3.0810 H         1 UNK         0.0703 
     89 H89        25.4369   28.1628    2.0304 H         1 UNK         0.3081 
     90 H90        24.9612   28.7673   -0.4133 H         1 UNK         0.0719 
     91 H91        27.3051   27.6153   -2.0203 H         1 UNK         0.0809 
     92 H92        25.6906   27.9422   -2.6520 H         1 UNK         0.0809 
     93 H93        26.7032   29.2655   -2.1040 H         1 UNK         0.0809 
     94 H94        25.8502   26.0201   -0.8172 H         1 UNK         0.2990 
     95 H95        24.4636   24.5469    1.8527 H         1 UNK         0.0690 
     96 H96        22.5998   23.3906    0.6775 H         1 UNK         0.0788 
     97 H97        22.5530   24.6626   -0.5451 H         1 UNK         0.0788 
     98 H98        22.1238   25.0190    1.1219 H         1 UNK         0.0788 
     99 H99        24.6941   23.4492   -0.7736 H         1 UNK         0.2993 
    100 H100       26.8920   21.8535   -0.6237 H         1 UNK         0.0949 
    101 H101       26.9812   24.2316   -2.5845 H         1 UNK         0.0767 
    102 H102       27.3319   22.5648   -3.0268 H         1 UNK         0.0767 
    103 H103       25.7211   23.0030   -2.5075 H         1 UNK         0.0767 
    104 H104       28.9149   23.8927   -0.2764 H         1 UNK         0.3013 
    105 H105       26.1239   30.9631    2.0917 H         1 UNK         0.3121 
    106 H106       27.8132   32.9696    3.2514 H         1 UNK         0.0774 
    107 H107       25.8843   33.1131    0.8688 H         1 UNK         0.0815 
    108 H108       26.5818   34.4940    1.7028 H         1 UNK         0.0815 
    109 H109       25.4736   33.4332    2.5551 H         1 UNK         0.0815 
    110 H110       28.0628   31.0632    0.2821 H         1 UNK         0.2987 
    111 H111       30.1846   32.7607   -0.8688 H         1 UNK         0.0949 
    112 H112       29.0684   30.0627   -1.8077 H         1 UNK         0.0806 
    113 H113       28.5242   31.6405   -2.3783 H         1 UNK         0.0806 
    114 H114       30.1671   31.1058   -2.6938 H         1 UNK         0.0806 
    115 H115       29.7598   29.6462    0.8122 H         1 UNK         0.3010 
    116 H116       32.4814   28.8064    0.7784 H         1 UNK         0.0829 
    117 H117       31.7624   27.1718    2.4216 H         1 UNK         0.0813 
    118 H118       30.3641   28.1273    2.8868 H         1 UNK         0.0813 
    119 H119       30.4344   27.3660    1.2989 H         1 UNK         0.0813 
    120 H120       30.6227   30.7469    3.1287 H         1 UNK         0.3038 
    121 H121       31.1198   32.2518    4.6393 H         1 UNK         0.0769 
    122 H122       33.7188   32.6009    3.0402 H         1 UNK         0.0811 
    123 H123       33.1148   33.7319    4.2528 H         1 UNK         0.0811 
    124 H124       32.1974   33.4399    2.7881 H         1 UNK         0.0811 
    125 H125       34.5455   31.9064    4.7771 H         1 UNK         0.3204 
    126 H126       34.4687   30.9840    7.5267 H         1 UNK         0.0748 
    127 H127       36.9448   31.2370    7.3682 H         1 UNK         0.0771 
    128 H128       36.8275   31.5035    5.6347 H         1 UNK         0.0771 
    129 H129       36.1299   32.6686    6.7619 H         1 UNK         0.0771 
    130 H130       34.7939   29.4157    4.4266 H         1 UNK         0.2980 
    131 H131       35.6252   27.5283    3.7014 H         1 UNK         0.0545 
    132 H132       35.7043   25.0021    5.8030 H         1 UNK         0.3459 
    133 H133       37.4151   25.0708    6.1505 H         1 UNK         0.3459 
    134 H134       34.2835   25.5430    4.3293 H         1 UNK         0.0616 
    135 H135       33.3754   26.9736    4.0036 H         1 UNK         0.0616 
    136 H136       31.3185   27.6851    6.9458 H         1 UNK         0.0634 
    137 H137       31.8337   28.0903    5.3312 H         1 UNK         0.0634 
@<TRIPOS>BOND
     1    1    2 1    
     2    1   72 1    
     3    1   73 1    
     4    1   74 1    
     5    2    3 2    
     6    2    4 am   BACKBONE|DICT|INTERRES
     7    4    5 1    
     8    4   75 1    
     9    5    6 1    
    10    5   35 1    
    11    5   76 1    
    12    6    7 1    
    13    6   77 1    
    14    6   78 1    
    15    7    8 1    
    16    8    9 1    
    17    8   79 1    
    18    8   80 1    
    19    9   10 ar   
    20    9   14 ar   
    21   10   11 ar   
    22   10   81 1    
    23   11   12 ar   
    24   11   71 1    
    25   12   13 ar   
    26   12   82 1    
    27   13   14 ar   
    28   13   15 1    
    29   14   83 1    
    30   15   16 1    
    31   15   84 1    
    32   15   85 1    
    33   16   17 1    
    34   17   18 1    
    35   17   86 1    
    36   17   87 1    
    37   18   19 1    
    38   18   37 1    
    39   18   88 1    
    40   19   20 am   BACKBONE|DICT|INTERRES
    41   19   89 1    
    42   20   21 2    
    43   20   22 1    
    44   22   23 1    
    45   22   24 1    
    46   22   90 1    
    47   23   91 1    
    48   23   92 1    
    49   23   93 1    
    50   24   25 am   BACKBONE|DICT|INTERRES
    51   24   94 1    
    52   25   26 2    
    53   25   27 1    
    54   27   28 1    
    55   27   29 1    
    56   27   95 1    
    57   28   96 1    
    58   28   97 1    
    59   28   98 1    
    60   29   30 am   BACKBONE|DICT|INTERRES
    61   29   99 1    
    62   30   31 2    
    63   30   32 1    
    64   32   33 1    
    65   32   34 1    
    66   32  100 1    
    67   33  101 1    
    68   33  102 1    
    69   33  103 1    
    70   34   35 am   BACKBONE|DICT|INTERRES
    71   34  104 1    
    72   35   36 2    
    73   37   38 2    
    74   37   39 am   BACKBONE|DICT|INTERRES
    75   39   40 1    
    76   39  105 1    
    77   40   41 1    
    78   40   42 1    
    79   40  106 1    
    80   41  107 1    
    81   41  108 1    
    82   41  109 1    
    83   42   43 2    
    84   42   44 am   BACKBONE|DICT|INTERRES
    85   44   45 1    
    86   44  110 1    
    87   45   46 1    
    88   45   47 1    
    89   45  111 1    
    90   46  112 1    
    91   46  113 1    
    92   46  114 1    
    93   47   48 2    
    94   47   49 am   BACKBONE|DICT|INTERRES
    95   49   50 1    
    96   49  115 1    
    97   50   51 1    
    98   50   52 1    
    99   50  116 1    
   100   51  117 1    
   101   51  118 1    
   102   51  119 1    
   103   52   53 2    
   104   52   54 am   BACKBONE|DICT|INTERRES
   105   54   55 1    
   106   54  120 1    
   107   55   56 1    
   108   55   57 1    
   109   55  121 1    
   110   56  122 1    
   111   56  123 1    
   112   56  124 1    
   113   57   58 2    
   114   57   59 am   BACKBONE|DICT|INTERRES
   115   59   60 1    
   116   59  125 1    
   117   60   61 1    
   118   60   62 1    
   119   60  126 1    
   120   61  127 1    
   121   61  128 1    
   122   61  129 1    
   123   62   63 2    
   124   62   64 am   BACKBONE|DICT|INTERRES
   125   64   65 1    
   126   64  130 1    
   127   65   66 1    
   128   65   69 1    
   129   65  131 1    
   130   66   67 am   BACKBONE|DICT|INTERRES
   131   66   68 2    
   132   67  132 1    
   133   67  133 1    
   134   69   70 1    
   135   69  134 1    
   136   69  135 1    
   137   70   71 1    
   138   71  136 1    
   139   71  137 1    
@<TRIPOS>SUBSTRUCTURE
     1 UNK         1 GROUP             0       ****    0 ROOT    
