@<TRIPOS>MOLECULE
3R136
137   139    1
SMALL
USER_CHARGES


@<TRIPOS>ATOM
      1 CA         25.8967   21.1007    2.8752 C.3       0 UNK        -0.1979 
      2 C          26.4444   22.4060    2.3207 C.2       0 UNK         0.4864 
      3 O          26.0777   22.7972    1.2124 O.2       0 UNK        -0.5359 
      4 N          27.3044   23.0907    3.0889 N.am      1 UNK        -0.4318 
      5 CA         28.0090   24.3364    2.7401 C.3       1 UNK         0.0824 
      6 C6         28.8520   24.8598    3.9288 C.3       12 UNK        -0.0944 
      7 S7         30.1023   23.6403    4.4605 S.3       12 UNK        -0.2672 
      8 C8         31.5962   24.6760    4.6412 C.3       12 UNK         0.0333 
      9 C9         32.0678   25.3838    3.3700 C.ar      12 UNK        -0.0807 
     10 C10        32.8232   26.5512    3.5004 C.ar      12 UNK        -0.0894 
     11 C11        33.3055   27.2233    2.3755 C.ar      12 UNK        -0.0804 
     12 C12        33.0055   26.7338    1.1017 C.ar      12 UNK        -0.0824 
     13 C13        32.2272   25.5788    0.9469 C.ar      12 UNK        -0.0762 
     14 C14        31.7863   24.8984    2.0865 C.ar      12 UNK        -0.0782 
     15 C15        31.8512   25.0302   -0.4301 C.3       12 UNK         0.0230 
     16 S16        31.6330   26.2950   -1.7286 S.3       12 UNK        -0.2608 
     17 C17        30.3301   27.3630   -1.0273 C.3       12 UNK        -0.0989 
     18 CA         28.9998   27.2789   -1.8163 C.3       5 UNK         0.0716 
     19 N          28.2908   26.0160   -1.5878 N.am      5 UNK        -0.4135 
     20 C          28.1814   25.0393   -2.4975 C.2       4 UNK         0.5031 
     21 O          28.6442   25.0970   -3.6380 O.2       4 UNK        -0.5229 
     22 CA         27.4318   23.7682   -2.0693 C.3       4 UNK         0.0329 
     23 CB         28.3586   22.8382   -1.2695 C.3       4 UNK        -0.2001 
     24 N          26.2160   24.0281   -1.2972 N.am      4 UNK        -0.4303 
     25 C          25.1121   24.6216   -1.7753 C.2       3 UNK         0.5044 
     26 O          25.0129   25.0731   -2.9164 O.2       3 UNK        -0.5152 
     27 CA         23.9088   24.7147   -0.8262 C.3       3 UNK         0.0319 
     28 CB         23.1473   23.3791   -0.7902 C.3       3 UNK        -0.2001 
     29 N          24.3334   25.0652    0.5288 N.am      3 UNK        -0.4354 
     30 C          24.2448   26.2922    1.0595 C.2       2 UNK         0.4964 
     31 O          23.7249   27.2500    0.4884 O.2       2 UNK        -0.5047 
     32 CA         24.8267   26.5012    2.4703 C.3       2 UNK         0.0288 
     33 CB         23.7104   26.4150    3.5238 C.3       2 UNK        -0.2113 
     34 N          25.8931   25.5650    2.8303 N.am      2 UNK        -0.4145 
     35 C          27.0810   25.4515    2.2179 C.2       1 UNK         0.5006 
     36 O          27.4358   26.1407    1.2570 O.2       1 UNK        -0.5103 
     37 C          28.1101   28.4863   -1.4803 C.2       5 UNK         0.5055 
     38 O          28.1617   29.4761   -2.2116 O.2       5 UNK        -0.5220 
     39 N          27.3494   28.4102   -0.3751 N.am      6 UNK        -0.4450 
     40 CA         26.5821   29.5092    0.2328 C.3       6 UNK         0.0367 
     41 CB         25.4523   29.9948   -0.7012 C.3       6 UNK        -0.1929 
     42 C          27.4828   30.6591    0.7346 C.2       6 UNK         0.5070 
     43 O          27.0643   31.8182    0.7372 O.2       6 UNK        -0.5237 
     44 N          28.7135   30.3174    1.1384 N.am      7 UNK        -0.4739 
     45 CA         29.7268   31.2497    1.6269 C.3       7 UNK         0.0276 
     46 CB         31.1105   30.5934    1.4783 C.3       7 UNK        -0.1927 
     47 C          29.4793   31.6346    3.0932 C.2       7 UNK         0.5013 
     48 O          29.0001   30.8077    3.8727 O.2       7 UNK        -0.5193 
     49 N          29.8635   32.8674    3.4484 N.am      8 UNK        -0.4253 
     50 CA         29.8885   33.3559    4.8314 C.3       8 UNK         0.0242 
     51 CB         29.7594   34.8885    4.8271 C.3       8 UNK        -0.2000 
     52 C          31.1621   32.9261    5.5855 C.2       8 UNK         0.4948 
     53 O          31.1597   32.9227    6.8175 O.2       8 UNK        -0.5275 
     54 N          32.2266   32.5930    4.8416 N.am      9 UNK        -0.4246 
     55 CA         33.5010   32.0960    5.3601 C.3       9 UNK         0.0261 
     56 CB         34.5602   32.2048    4.2490 C.3       9 UNK        -0.1959 
     57 C          33.3917   30.6418    5.8473 C.2       9 UNK         0.5033 
     58 O          32.5306   29.8958    5.3760 O.2       9 UNK        -0.5390 
     59 N          34.3007   30.2547    6.7501 N.am      10 UNK        -0.4215 
     60 CA         34.4097   28.8880    7.2674 C.3       10 UNK         0.0240 
     61 CB         35.0498   28.9267    8.6653 C.3       10 UNK        -0.1982 
     62 C          35.2058   27.9487    6.3431 C.2       10 UNK         0.4970 
     63 O          34.9695   26.7415    6.3876 O.2       10 UNK        -0.4916 
     64 N          36.1425   28.5031    5.5557 N.am      11 UNK        -0.4279 
     65 CA         37.1007   27.7728    4.6992 C.3       11 UNK         0.1003 
     66 C          38.0870   26.8427    5.4780 C.2       11 UNK         0.5709 
     67 N          38.3001   27.0440    6.7735 N.am      11 UNK        -0.7358 
     68 O          38.7034   25.9500    4.9003 O.2       11 UNK        -0.4999 
     69 C69        36.4203   27.0704    3.4847 C.3       12 UNK        -0.0954 
     70 S70        35.8951   28.2461    2.1910 S.3       12 UNK        -0.2268 
     71 C71        34.1288   28.4920    2.5432 C.3       12 UNK         0.0203 
     72 H72        26.2936   20.8790    3.8656 H         1 UNK         0.0888 
     73 H73        24.8106   21.1513    2.9466 H         1 UNK         0.0888 
     74 H74        26.1566   20.2762    2.2120 H         1 UNK         0.0888 
     75 H75        27.5674   22.7012    3.9836 H         1 UNK         0.3017 
     76 H76        28.6890   24.0936    1.9225 H         1 UNK         0.0873 
     77 H77        29.3494   25.7945    3.6616 H         1 UNK         0.0745 
     78 H78        28.2155   25.0913    4.7850 H         1 UNK         0.0745 
     79 H79        31.4027   25.4117    5.4238 H         1 UNK         0.0705 
     80 H80        32.4097   24.0472    5.0051 H         1 UNK         0.0705 
     81 H81        33.0457   26.9366    4.4860 H         1 UNK         0.1334 
     82 H82        33.3766   27.2612    0.2341 H         1 UNK         0.1417 
     83 H83        31.2148   23.9889    1.9677 H         1 UNK         0.1562 
     84 H84        30.9261   24.4557   -0.3658 H         1 UNK         0.0748 
     85 H85        32.6268   24.3334   -0.7501 H         1 UNK         0.0748 
     86 H86        30.7284   28.3797   -1.0482 H         1 UNK         0.0940 
     87 H87        30.1668   27.1281    0.0260 H         1 UNK         0.0940 
     88 H88        29.2358   27.3826   -2.8778 H         1 UNK         0.0703 
     89 H89        27.8727   25.8836   -0.6736 H         1 UNK         0.3081 
     90 H90        27.1341   23.2425   -2.9792 H         1 UNK         0.0719 
     91 H91        28.6604   23.2854   -0.3229 H         1 UNK         0.0809 
     92 H92        27.8708   21.8887   -1.0479 H         1 UNK         0.0809 
     93 H93        29.2670   22.6134   -1.8303 H         1 UNK         0.0809 
     94 H94        26.1856   23.6336   -0.3580 H         1 UNK         0.2990 
     95 H95        23.2309   25.4748   -1.2206 H         1 UNK         0.0690 
     96 H96        22.2588   23.4489   -0.1627 H         1 UNK         0.0788 
     97 H97        23.7660   22.5678   -0.4040 H         1 UNK         0.0788 
     98 H98        22.8169   23.0914   -1.7893 H         1 UNK         0.0788 
     99 H99        24.8094   24.3363    1.0502 H         1 UNK         0.2993 
    100 H100       25.2476   27.5065    2.5066 H         1 UNK         0.0949 
    101 H101       22.9107   27.1242    3.3044 H         1 UNK         0.0767 
    102 H102       23.2634   25.4205    3.5582 H         1 UNK         0.0767 
    103 H103       24.0845   26.6513    4.5203 H         1 UNK         0.0767 
    104 H104       25.6973   24.9348    3.5947 H         1 UNK         0.3013 
    105 H105       27.3877   27.5603    0.1858 H         1 UNK         0.3121 
    106 H106       26.1111   29.0943    1.1225 H         1 UNK         0.0774 
    107 H107       24.7717   30.6626   -0.1720 H         1 UNK         0.0815 
    108 H108       25.8397   30.5435   -1.5598 H         1 UNK         0.0815 
    109 H109       24.8597   29.1608   -1.0763 H         1 UNK         0.0815 
    110 H110       28.9531   29.3381    1.1639 H         1 UNK         0.2987 
    111 H111       29.6973   32.1512    1.0103 H         1 UNK         0.0949 
    112 H112       31.1922   29.6851    2.0780 H         1 UNK         0.0806 
    113 H113       31.3178   30.3311    0.4409 H         1 UNK         0.0806 
    114 H114       31.9039   31.2678    1.8022 H         1 UNK         0.0806 
    115 H115       30.2194   33.4941    2.7401 H         1 UNK         0.3010 
    116 H116       29.0325   32.9445    5.3712 H         1 UNK         0.0829 
    117 H117       28.8341   35.2073    4.3467 H         1 UNK         0.0813 
    118 H118       29.7455   35.2810    5.8449 H         1 UNK         0.0813 
    119 H119       30.5910   35.3647    4.3062 H         1 UNK         0.0813 
    120 H120       32.1214   32.5951    3.8396 H         1 UNK         0.3038 
    121 H121       33.8009   32.7272    6.1996 H         1 UNK         0.0769 
    122 H122       34.6650   33.2323    3.8999 H         1 UNK         0.0811 
    123 H123       34.3099   31.5825    3.3886 H         1 UNK         0.0811 
    124 H124       35.5409   31.8868    4.6045 H         1 UNK         0.0811 
    125 H125       34.9645   30.9318    7.0995 H         1 UNK         0.3204 
    126 H126       33.4062   28.4686    7.3712 H         1 UNK         0.0748 
    127 H127       34.4509   29.5185    9.3581 H         1 UNK         0.0771 
    128 H128       35.1294   27.9232    9.0865 H         1 UNK         0.0771 
    129 H129       36.0540   29.3516    8.6426 H         1 UNK         0.0771 
    130 H130       36.2731   29.5021    5.5950 H         1 UNK         0.2980 
    131 H131       37.7591   28.5413    4.2928 H         1 UNK         0.0545 
    132 H132       38.9483   26.4473    7.2629 H         1 UNK         0.3459 
    133 H133       37.8236   27.7820    7.2649 H         1 UNK         0.3459 
    134 H134       35.5881   26.4441    3.8032 H         1 UNK         0.0616 
    135 H135       37.1148   26.3932    2.9859 H         1 UNK         0.0616 
    136 H136       34.0306   28.8849    3.5526 H         1 UNK         0.0634 
    137 H137       33.7445   29.2633    1.8753 H         1 UNK         0.0634 
@<TRIPOS>BOND
     1    1    2 1    
     2    1   72 1    
     3    1   73 1    
     4    1   74 1    
     5    2    3 2    
     6    2    4 am   BACKBONE|DICT|INTERRES
     7    4    5 1    
     8    4   75 1    
     9    5    6 1    
    10    5   35 1    
    11    5   76 1    
    12    6    7 1    
    13    6   77 1    
    14    6   78 1    
    15    7    8 1    
    16    8    9 1    
    17    8   79 1    
    18    8   80 1    
    19    9   10 ar   
    20    9   14 ar   
    21   10   11 ar   
    22   10   81 1    
    23   11   12 ar   
    24   11   71 1    
    25   12   13 ar   
    26   12   82 1    
    27   13   14 ar   
    28   13   15 1    
    29   14   83 1    
    30   15   16 1    
    31   15   84 1    
    32   15   85 1    
    33   16   17 1    
    34   17   18 1    
    35   17   86 1    
    36   17   87 1    
    37   18   19 1    
    38   18   37 1    
    39   18   88 1    
    40   19   20 am   BACKBONE|DICT|INTERRES
    41   19   89 1    
    42   20   21 2    
    43   20   22 1    
    44   22   23 1    
    45   22   24 1    
    46   22   90 1    
    47   23   91 1    
    48   23   92 1    
    49   23   93 1    
    50   24   25 am   BACKBONE|DICT|INTERRES
    51   24   94 1    
    52   25   26 2    
    53   25   27 1    
    54   27   28 1    
    55   27   29 1    
    56   27   95 1    
    57   28   96 1    
    58   28   97 1    
    59   28   98 1    
    60   29   30 am   BACKBONE|DICT|INTERRES
    61   29   99 1    
    62   30   31 2    
    63   30   32 1    
    64   32   33 1    
    65   32   34 1    
    66   32  100 1    
    67   33  101 1    
    68   33  102 1    
    69   33  103 1    
    70   34   35 am   BACKBONE|DICT|INTERRES
    71   34  104 1    
    72   35   36 2    
    73   37   38 2    
    74   37   39 am   BACKBONE|DICT|INTERRES
    75   39   40 1    
    76   39  105 1    
    77   40   41 1    
    78   40   42 1    
    79   40  106 1    
    80   41  107 1    
    81   41  108 1    
    82   41  109 1    
    83   42   43 2    
    84   42   44 am   BACKBONE|DICT|INTERRES
    85   44   45 1    
    86   44  110 1    
    87   45   46 1    
    88   45   47 1    
    89   45  111 1    
    90   46  112 1    
    91   46  113 1    
    92   46  114 1    
    93   47   48 2    
    94   47   49 am   BACKBONE|DICT|INTERRES
    95   49   50 1    
    96   49  115 1    
    97   50   51 1    
    98   50   52 1    
    99   50  116 1    
   100   51  117 1    
   101   51  118 1    
   102   51  119 1    
   103   52   53 2    
   104   52   54 am   BACKBONE|DICT|INTERRES
   105   54   55 1    
   106   54  120 1    
   107   55   56 1    
   108   55   57 1    
   109   55  121 1    
   110   56  122 1    
   111   56  123 1    
   112   56  124 1    
   113   57   58 2    
   114   57   59 am   BACKBONE|DICT|INTERRES
   115   59   60 1    
   116   59  125 1    
   117   60   61 1    
   118   60   62 1    
   119   60  126 1    
   120   61  127 1    
   121   61  128 1    
   122   61  129 1    
   123   62   63 2    
   124   62   64 am   BACKBONE|DICT|INTERRES
   125   64   65 1    
   126   64  130 1    
   127   65   66 1    
   128   65   69 1    
   129   65  131 1    
   130   66   67 am   BACKBONE|DICT|INTERRES
   131   66   68 2    
   132   67  132 1    
   133   67  133 1    
   134   69   70 1    
   135   69  134 1    
   136   69  135 1    
   137   70   71 1    
   138   71  136 1    
   139   71  137 1    
@<TRIPOS>SUBSTRUCTURE
     1 UNK         1 GROUP             0       ****    0 ROOT    
