@<TRIPOS>MOLECULE
3R136
137   139    1
SMALL
USER_CHARGES


@<TRIPOS>ATOM
      1 CA         33.3765   22.4901   -3.8557 C.3       0 UNK        -0.1979 
      2 C          32.3327   23.4365   -3.2806 C.2       0 UNK         0.4864 
      3 O          31.8735   24.3391   -3.9825 O.2       0 UNK        -0.5359 
      4 N          31.9636   23.2423   -2.0082 N.am      1 UNK        -0.4318 
      5 CA         30.9428   24.0220   -1.2995 C.3       1 UNK         0.0824 
      6 C6         30.9866   23.7762    0.2286 C.3       12 UNK        -0.0944 
      7 S7         32.6182   24.1355    0.9635 S.3       12 UNK        -0.2672 
      8 C8         32.6115   23.0613    2.4350 C.3       12 UNK         0.0333 
      9 C9         31.7030   23.6025    3.5308 C.ar      12 UNK        -0.0807 
     10 C10        32.2205   24.4206    4.5395 C.ar      12 UNK        -0.0894 
     11 C11        31.3907   24.9109    5.5535 C.ar      12 UNK        -0.0804 
     12 C12        30.0268   24.5983    5.5408 C.ar      12 UNK        -0.0824 
     13 C13        29.4986   23.7807    4.5361 C.ar      12 UNK        -0.0762 
     14 C14        30.3459   23.2719    3.5467 C.ar      12 UNK        -0.0782 
     15 C15        28.0150   23.4335    4.5132 C.3       12 UNK         0.0230 
     16 S16        26.9588   24.8328    4.0073 S.3       12 UNK        -0.2608 
     17 C17        27.6743   25.3329    2.3970 C.3       12 UNK        -0.0989 
     18 CA         27.6481   26.8586    2.1378 C.3       5 UNK         0.0716 
     19 N          26.2782   27.3602    1.9989 N.am      5 UNK        -0.4135 
     20 C          25.9235   28.6189    1.7149 C.2       4 UNK         0.5031 
     21 O          26.7114   29.5652    1.6816 O.2       4 UNK        -0.5229 
     22 CA         24.4471   28.8350    1.3423 C.3       4 UNK         0.0329 
     23 CB         24.0251   30.3114    1.4590 C.3       4 UNK        -0.2001 
     24 N          24.2257   28.3791   -0.0305 N.am      4 UNK        -0.4303 
     25 C          24.1661   27.0961   -0.4124 C.2       3 UNK         0.5044 
     26 O          24.1207   26.1536    0.3826 O.2       3 UNK        -0.5152 
     27 CA         24.1854   26.7978   -1.9248 C.3       3 UNK         0.0319 
     28 CB         24.3638   28.0463   -2.8207 C.3       3 UNK        -0.2001 
     29 N          25.1903   25.7794   -2.2586 N.am      3 UNK        -0.4354 
     30 C          26.5135   25.8423   -2.0410 C.2       2 UNK         0.4964 
     31 O          27.0954   26.8004   -1.5240 O.2       2 UNK        -0.5047 
     32 CA         27.3264   24.6283   -2.5086 C.3       2 UNK         0.0288 
     33 CB         27.3614   24.5438   -4.0487 C.3       2 UNK        -0.2113 
     34 N          28.6885   24.7263   -1.9865 N.am      2 UNK        -0.4145 
     35 C          29.5383   23.7016   -1.8538 C.2       1 UNK         0.5006 
     36 O          29.2464   22.5335   -2.1274 O.2       1 UNK        -0.5103 
     37 C          28.5182   27.6534    3.1356 C.2       5 UNK         0.5055 
     38 O          29.6703   27.9518    2.8261 O.2       5 UNK        -0.5220 
     39 N          27.9242   28.0372    4.2741 N.am      6 UNK        -0.4450 
     40 CA         28.5561   28.8277    5.3317 C.3       6 UNK         0.0367 
     41 CB         27.6997   28.7301    6.6046 C.3       6 UNK        -0.1929 
     42 C          28.8146   30.3007    4.9583 C.2       6 UNK         0.5070 
     43 O          29.5806   30.9624    5.6589 O.2       6 UNK        -0.5237 
     44 N          28.1688   30.7984    3.8948 N.am      7 UNK        -0.4739 
     45 CA         28.4202   32.1195    3.3165 C.3       7 UNK         0.0276 
     46 CB         27.0825   32.7745    2.9335 C.3       7 UNK        -0.1927 
     47 C          29.3431   32.0164    2.0917 C.2       7 UNK         0.5013 
     48 O          30.1553   32.9168    1.8761 O.2       7 UNK        -0.5193 
     49 N          29.1954   30.9378    1.3074 N.am      8 UNK        -0.4253 
     50 CA         29.9963   30.6444    0.1182 C.3       8 UNK         0.0242 
     51 CB         29.3470   29.4935   -0.6691 C.3       8 UNK        -0.2000 
     52 C          31.4632   30.3222    0.4496 C.2       8 UNK         0.4948 
     53 O          32.3589   30.8655   -0.1993 O.2       8 UNK        -0.5275 
     54 N          31.6835   29.4528    1.4437 N.am      9 UNK        -0.4246 
     55 CA         33.0052   29.1074    1.9655 C.3       9 UNK         0.0261 
     56 CB         32.9897   27.6391    2.4196 C.3       9 UNK        -0.1959 
     57 C          33.3805   30.0329    3.1325 C.2       9 UNK         0.5033 
     58 O          32.5013   30.6231    3.7638 O.2       9 UNK        -0.5390 
     59 N          34.6878   30.1316    3.4100 N.am      10 UNK        -0.4215 
     60 CA         35.2323   30.9135    4.5251 C.3       10 UNK         0.0240 
     61 CB         36.7439   31.1149    4.3256 C.3       10 UNK        -0.1982 
     62 C          34.9456   30.2777    5.8970 C.2       10 UNK         0.4970 
     63 O          34.6705   31.0073    6.8502 O.2       10 UNK        -0.4916 
     64 N          35.0222   28.9398    5.9629 N.am      11 UNK        -0.4279 
     65 CA         34.7461   28.1042    7.1476 C.3       11 UNK         0.1003 
     66 C          35.6958   28.3430    8.3631 C.2       11 UNK         0.5709 
     67 N          36.8747   28.9242    8.1732 N.am      11 UNK        -0.7358 
     68 O          35.3831   27.9649    9.4900 O.2       11 UNK        -0.4999 
     69 C69        33.2389   28.0995    7.5390 C.3       12 UNK        -0.0954 
     70 S70        32.1834   27.4865    6.1840 S.3       12 UNK        -0.2268 
     71 C71        31.9825   25.7496    6.6759 C.3       12 UNK         0.0203 
     72 H72        34.2511   23.0509   -4.1843 H         1 UNK         0.0888 
     73 H73        33.7032   21.7506   -3.1247 H         1 UNK         0.0888 
     74 H74        32.9682   21.9595   -4.7154 H         1 UNK         0.0888 
     75 H75        32.3697   22.4826   -1.4819 H         1 UNK         0.3017 
     76 H76        31.1508   25.0791   -1.4810 H         1 UNK         0.0873 
     77 H77        30.2533   24.4070    0.7312 H         1 UNK         0.0745 
     78 H78        30.7160   22.7423    0.4518 H         1 UNK         0.0745 
     79 H79        32.3126   22.0498    2.1555 H         1 UNK         0.0705 
     80 H80        33.6331   22.9798    2.8094 H         1 UNK         0.0705 
     81 H81        33.2723   24.6725    4.5404 H         1 UNK         0.1334 
     82 H82        29.3763   24.9860    6.3130 H         1 UNK         0.1417 
     83 H83        29.9436   22.6302    2.7752 H         1 UNK         0.1562 
     84 H84        27.7080   23.1034    5.5065 H         1 UNK         0.0748 
     85 H85        27.8259   22.5926    3.8440 H         1 UNK         0.0748 
     86 H86        27.1316   24.8124    1.6059 H         1 UNK         0.0940 
     87 H87        28.7011   24.9852    2.3171 H         1 UNK         0.0940 
     88 H88        28.1044   27.0115    1.1583 H         1 UNK         0.0703 
     89 H89        25.5558   26.6528    1.9370 H         1 UNK         0.3081 
     90 H90        23.8284   28.2491    2.0256 H         1 UNK         0.0719 
     91 H91        24.5863   30.9509    0.7763 H         1 UNK         0.0809 
     92 H92        22.9646   30.4386    1.2412 H         1 UNK         0.0809 
     93 H93        24.1957   30.6860    2.4693 H         1 UNK         0.0809 
     94 H94        24.2910   29.0832   -0.7512 H         1 UNK         0.2990 
     95 H95        23.2134   26.3606   -2.1577 H         1 UNK         0.0690 
     96 H96        24.3570   27.7715   -3.8756 H         1 UNK         0.0788 
     97 H97        25.3040   28.5640   -2.6251 H         1 UNK         0.0788 
     98 H98        23.5509   28.7593   -2.6770 H         1 UNK         0.0788 
     99 H99        24.8193   24.9313   -2.6639 H         1 UNK         0.2993 
    100 H100       26.8534   23.7318   -2.1012 H         1 UNK         0.0949 
    101 H101       27.9191   23.6707   -4.3882 H         1 UNK         0.0767 
    102 H102       26.3577   24.4626   -4.4674 H         1 UNK         0.0767 
    103 H103       27.8282   25.4271   -4.4866 H         1 UNK         0.0767 
    104 H104       28.9499   25.6601   -1.6939 H         1 UNK         0.3013 
    105 H105       26.9715   27.7416    4.4314 H         1 UNK         0.3121 
    106 H106       29.5274   28.3785    5.5411 H         1 UNK         0.0774 
    107 H107       26.7059   29.1540    6.4558 H         1 UNK         0.0815 
    108 H108       28.1651   29.2714    7.4295 H         1 UNK         0.0815 
    109 H109       27.5823   27.6948    6.9255 H         1 UNK         0.0815 
    110 H110       27.5631   30.1858    3.3589 H         1 UNK         0.2987 
    111 H111       28.9128   32.7643    4.0478 H         1 UNK         0.0949 
    112 H112       26.5481   32.1994    2.1769 H         1 UNK         0.0806 
    113 H113       26.4292   32.8761    3.8001 H         1 UNK         0.0806 
    114 H114       27.2422   33.7746    2.5284 H         1 UNK         0.0806 
    115 H115       28.4406   30.2912    1.5196 H         1 UNK         0.3010 
    116 H116       29.9855   31.5347   -0.5141 H         1 UNK         0.0829 
    117 H117       29.3432   28.5653   -0.0982 H         1 UNK         0.0813 
    118 H118       28.3149   29.7227   -0.9360 H         1 UNK         0.0813 
    119 H119       29.8877   29.3019   -1.5967 H         1 UNK         0.0813 
    120 H120       30.8920   29.0667    1.9558 H         1 UNK         0.3038 
    121 H121       33.7522   29.2165    1.1763 H         1 UNK         0.0769 
    122 H122       33.9674   27.3202    2.7814 H         1 UNK         0.0811 
    123 H123       32.2729   27.4713    3.2237 H         1 UNK         0.0811 
    124 H124       32.7176   26.9815    1.5954 H         1 UNK         0.0811 
    125 H125       35.3497   29.6283    2.8363 H         1 UNK         0.3204 
    126 H126       34.7570   31.8970    4.5131 H         1 UNK         0.0748 
    127 H127       37.1678   31.7097    5.1362 H         1 UNK         0.0771 
    128 H128       37.2823   30.1666    4.3008 H         1 UNK         0.0771 
    129 H129       36.9535   31.6443    3.3958 H         1 UNK         0.0771 
    130 H130       35.2685   28.4345    5.1259 H         1 UNK         0.2980 
    131 H131       34.9892   27.0883    6.8347 H         1 UNK         0.0545 
    132 H132       37.4877   29.0642    8.9607 H         1 UNK         0.3459 
    133 H133       37.1528   29.2299    7.2550 H         1 UNK         0.3459 
    134 H134       33.0610   27.4800    8.4197 H         1 UNK         0.0616 
    135 H135       32.9085   29.1040    7.8068 H         1 UNK         0.0616 
    136 H136       32.9528   25.3393    6.9603 H         1 UNK         0.0634 
    137 H137       31.3528   25.6997    7.5656 H         1 UNK         0.0634 
@<TRIPOS>BOND
     1    1    2 1    
     2    1   72 1    
     3    1   73 1    
     4    1   74 1    
     5    2    3 2    
     6    2    4 am   BACKBONE|DICT|INTERRES
     7    4    5 1    
     8    4   75 1    
     9    5    6 1    
    10    5   35 1    
    11    5   76 1    
    12    6    7 1    
    13    6   77 1    
    14    6   78 1    
    15    7    8 1    
    16    8    9 1    
    17    8   79 1    
    18    8   80 1    
    19    9   10 ar   
    20    9   14 ar   
    21   10   11 ar   
    22   10   81 1    
    23   11   12 ar   
    24   11   71 1    
    25   12   13 ar   
    26   12   82 1    
    27   13   14 ar   
    28   13   15 1    
    29   14   83 1    
    30   15   16 1    
    31   15   84 1    
    32   15   85 1    
    33   16   17 1    
    34   17   18 1    
    35   17   86 1    
    36   17   87 1    
    37   18   19 1    
    38   18   37 1    
    39   18   88 1    
    40   19   20 am   BACKBONE|DICT|INTERRES
    41   19   89 1    
    42   20   21 2    
    43   20   22 1    
    44   22   23 1    
    45   22   24 1    
    46   22   90 1    
    47   23   91 1    
    48   23   92 1    
    49   23   93 1    
    50   24   25 am   BACKBONE|DICT|INTERRES
    51   24   94 1    
    52   25   26 2    
    53   25   27 1    
    54   27   28 1    
    55   27   29 1    
    56   27   95 1    
    57   28   96 1    
    58   28   97 1    
    59   28   98 1    
    60   29   30 am   BACKBONE|DICT|INTERRES
    61   29   99 1    
    62   30   31 2    
    63   30   32 1    
    64   32   33 1    
    65   32   34 1    
    66   32  100 1    
    67   33  101 1    
    68   33  102 1    
    69   33  103 1    
    70   34   35 am   BACKBONE|DICT|INTERRES
    71   34  104 1    
    72   35   36 2    
    73   37   38 2    
    74   37   39 am   BACKBONE|DICT|INTERRES
    75   39   40 1    
    76   39  105 1    
    77   40   41 1    
    78   40   42 1    
    79   40  106 1    
    80   41  107 1    
    81   41  108 1    
    82   41  109 1    
    83   42   43 2    
    84   42   44 am   BACKBONE|DICT|INTERRES
    85   44   45 1    
    86   44  110 1    
    87   45   46 1    
    88   45   47 1    
    89   45  111 1    
    90   46  112 1    
    91   46  113 1    
    92   46  114 1    
    93   47   48 2    
    94   47   49 am   BACKBONE|DICT|INTERRES
    95   49   50 1    
    96   49  115 1    
    97   50   51 1    
    98   50   52 1    
    99   50  116 1    
   100   51  117 1    
   101   51  118 1    
   102   51  119 1    
   103   52   53 2    
   104   52   54 am   BACKBONE|DICT|INTERRES
   105   54   55 1    
   106   54  120 1    
   107   55   56 1    
   108   55   57 1    
   109   55  121 1    
   110   56  122 1    
   111   56  123 1    
   112   56  124 1    
   113   57   58 2    
   114   57   59 am   BACKBONE|DICT|INTERRES
   115   59   60 1    
   116   59  125 1    
   117   60   61 1    
   118   60   62 1    
   119   60  126 1    
   120   61  127 1    
   121   61  128 1    
   122   61  129 1    
   123   62   63 2    
   124   62   64 am   BACKBONE|DICT|INTERRES
   125   64   65 1    
   126   64  130 1    
   127   65   66 1    
   128   65   69 1    
   129   65  131 1    
   130   66   67 am   BACKBONE|DICT|INTERRES
   131   66   68 2    
   132   67  132 1    
   133   67  133 1    
   134   69   70 1    
   135   69  134 1    
   136   69  135 1    
   137   70   71 1    
   138   71  136 1    
   139   71  137 1    
@<TRIPOS>SUBSTRUCTURE
     1 UNK         1 GROUP             0       ****    0 ROOT    
