@<TRIPOS>MOLECULE
3R136
137   139    1
SMALL
USER_CHARGES


@<TRIPOS>ATOM
      1 CA         24.2774   20.3935    2.2054 C.3       0 UNK        -0.1979 
      2 C          25.7489   20.6089    2.5270 C.2       0 UNK         0.4864 
      3 O          26.2626   19.9988    3.4649 O.2       0 UNK        -0.5359 
      4 N          26.4233   21.4803    1.7614 N.am      1 UNK        -0.4318 
      5 CA         27.8490   21.8242    1.8814 C.3       1 UNK         0.0824 
      6 C6         28.7788   20.6014    1.6139 C.3       12 UNK        -0.0944 
      7 S7         30.4822   20.9897    1.0740 S.3       12 UNK        -0.2672 
      8 C8         30.2324   21.8142   -0.5352 C.3       12 UNK         0.0333 
      9 C9         30.9179   23.1771   -0.6008 C.ar      12 UNK        -0.0807 
     10 C10        30.7611   24.1121    0.4296 C.ar      12 UNK        -0.0894 
     11 C11        31.3814   25.3619    0.3616 C.ar      12 UNK        -0.0804 
     12 C12        32.1683   25.6793   -0.7485 C.ar      12 UNK        -0.0824 
     13 C13        32.3184   24.7661   -1.7975 C.ar      12 UNK        -0.0762 
     14 C14        31.6918   23.5175   -1.7158 C.ar      12 UNK        -0.0782 
     15 C15        33.1734   25.1104   -3.0105 C.3       12 UNK         0.0230 
     16 S16        32.2523   26.0734   -4.2568 S.3       12 UNK        -0.2608 
     17 C17        32.3977   27.7718   -3.5978 C.3       12 UNK        -0.0989 
     18 CA         31.0411   28.4814   -3.3414 C.3       5 UNK         0.0716 
     19 N          30.0526   27.6174   -2.6775 N.am      5 UNK        -0.4135 
     20 C          28.7590   27.9203   -2.4862 C.2       4 UNK         0.5031 
     21 O          28.2379   28.9783   -2.8392 O.2       4 UNK        -0.5229 
     22 CA         27.9084   26.8810   -1.7514 C.3       4 UNK         0.0329 
     23 CB         28.3162   25.4306   -2.1012 C.3       4 UNK        -0.2001 
     24 N          27.9823   27.1621   -0.3148 N.am      4 UNK        -0.4303 
     25 C          27.2848   26.5344    0.6365 C.2       3 UNK         0.5044 
     26 O          26.5126   25.5930    0.4282 O.2       3 UNK        -0.5152 
     27 CA         27.4491   27.0553    2.0699 C.3       3 UNK         0.0319 
     28 CB         26.4674   28.2049    2.3483 C.3       3 UNK        -0.2001 
     29 N          27.1572   25.9409    2.9611 N.am      3 UNK        -0.4354 
     30 C          27.7614   25.6496    4.1179 C.2       2 UNK         0.4964 
     31 O          28.6203   26.3515    4.6469 O.2       2 UNK        -0.5047 
     32 CA         27.3491   24.3203    4.7739 C.3       2 UNK         0.0288 
     33 CB         26.0523   24.4896    5.5825 C.3       2 UNK        -0.2113 
     34 N          27.1689   23.2737    3.7629 N.am      2 UNK        -0.4145 
     35 C          28.1833   22.6333    3.1615 C.2       1 UNK         0.5006 
     36 O          29.3476   22.7215    3.5530 O.2       1 UNK        -0.5103 
     37 C          31.2867   29.7946   -2.5667 C.2       5 UNK         0.5055 
     38 O          31.6123   30.8160   -3.1737 O.2       5 UNK        -0.5220 
     39 N          31.1233   29.7269   -1.2422 N.am      6 UNK        -0.4450 
     40 CA         31.1389   30.8335   -0.2996 C.3       6 UNK         0.0367 
     41 CB         32.4851   30.8385    0.4455 C.3       6 UNK        -0.1929 
     42 C          29.9726   30.6266    0.6752 C.2       6 UNK         0.5070 
     43 O          29.4254   29.5198    0.7542 O.2       6 UNK        -0.5237 
     44 N          29.6300   31.6908    1.4095 N.am      7 UNK        -0.4739 
     45 CA         28.6766   31.6601    2.5200 C.3       7 UNK         0.0276 
     46 CB         28.2876   33.1022    2.8828 C.3       7 UNK        -0.1927 
     47 C          29.2855   30.9536    3.7405 C.2       7 UNK         0.5013 
     48 O          30.5064   30.9869    3.9118 O.2       7 UNK        -0.5193 
     49 N          28.4308   30.3766    4.5957 N.am      8 UNK        -0.4253 
     50 CA         28.8176   29.5777    5.7677 C.3       8 UNK         0.0242 
     51 CB         27.5553   29.0607    6.4769 C.3       8 UNK        -0.2000 
     52 C          29.7404   30.2946    6.7688 C.2       8 UNK         0.4948 
     53 O          30.5985   29.6458    7.3669 O.2       8 UNK        -0.5275 
     54 N          29.5841   31.6198    6.8962 N.am      9 UNK        -0.4246 
     55 CA         30.4372   32.4882    7.7124 C.3       9 UNK         0.0261 
     56 CB         29.8134   33.8921    7.7751 C.3       9 UNK        -0.1959 
     57 C          31.8965   32.5703    7.2220 C.2       9 UNK         0.5033 
     58 O          32.7834   32.8275    8.0376 O.2       9 UNK        -0.5390 
     59 N          32.1204   32.3561    5.9183 N.am      10 UNK        -0.4215 
     60 CA         33.4431   32.3060    5.2960 C.3       10 UNK         0.0240 
     61 CB         33.3997   33.0509    3.9515 C.3       10 UNK        -0.1982 
     62 C          33.9078   30.8551    5.0994 C.2       10 UNK         0.4970 
     63 O          35.0814   30.5654    5.3344 O.2       10 UNK        -0.4916 
     64 N          32.9914   29.9780    4.6674 N.am      11 UNK        -0.4279 
     65 CA         33.2410   28.5514    4.4206 C.3       11 UNK         0.1003 
     66 C          33.5574   27.7257    5.7004 C.2       11 UNK         0.5709 
     67 N          32.9732   28.0427    6.8500 N.am      11 UNK        -0.7358 
     68 O          34.3608   26.7972    5.6551 O.2       11 UNK        -0.4999 
     69 C69        32.0882   27.9188    3.5952 C.3       12 UNK        -0.0954 
     70 S70        32.6590   26.5802    2.4988 S.3       12 UNK        -0.2268 
     71 C71        31.1764   26.3791    1.4722 C.3       12 UNK         0.0203 
     72 H72        24.0966   19.3465    1.9635 H         1 UNK         0.0888 
     73 H73        23.6626   20.6553    3.0662 H         1 UNK         0.0888 
     74 H74        23.9508   20.9976    1.3591 H         1 UNK         0.0888 
     75 H75        25.9329   21.9485    1.0106 H         1 UNK         0.3017 
     76 H76        28.0070   22.5413    1.0765 H         1 UNK         0.0873 
     77 H77        28.8396   19.9726    2.5038 H         1 UNK         0.0745 
     78 H78        28.3422   19.9690    0.8391 H         1 UNK         0.0745 
     79 H79        29.1723   21.9371   -0.7556 H         1 UNK         0.0705 
     80 H80        30.6234   21.1537   -1.3105 H         1 UNK         0.0705 
     81 H81        30.1562   23.8672    1.2899 H         1 UNK         0.1334 
     82 H82        32.6635   26.6388   -0.7855 H         1 UNK         0.1417 
     83 H83        31.8091   22.8084   -2.5243 H         1 UNK         0.1562 
     84 H84        33.5302   24.1935   -3.4824 H         1 UNK         0.0748 
     85 H85        34.0702   25.6503   -2.7027 H         1 UNK         0.0748 
     86 H86        32.9782   28.3517   -4.3182 H         1 UNK         0.0940 
     87 H87        33.0075   27.7563   -2.6942 H         1 UNK         0.0940 
     88 H88        30.6177   28.7538   -4.3106 H         1 UNK         0.0703 
     89 H89        30.3850   26.7069   -2.3922 H         1 UNK         0.3081 
     90 H90        26.8744   27.0284   -2.0699 H         1 UNK         0.0719 
     91 H91        28.3883   25.2913   -3.1809 H         1 UNK         0.0809 
     92 H92        27.5855   24.7062   -1.7435 H         1 UNK         0.0809 
     93 H93        29.2779   25.1649   -1.6717 H         1 UNK         0.0809 
     94 H94        28.5289   27.9781   -0.0456 H         1 UNK         0.2990 
     95 H95        28.4719   27.4043    2.2195 H         1 UNK         0.0690 
     96 H96        26.5524   28.5565    3.3752 H         1 UNK         0.0788 
     97 H97        25.4329   27.8993    2.1858 H         1 UNK         0.0788 
     98 H98        26.6649   29.0520    1.6910 H         1 UNK         0.0788 
     99 H99        26.5056   25.2771    2.5631 H         1 UNK         0.2993 
    100 H100       28.1449   24.0224    5.4608 H         1 UNK         0.0949 
    101 H101       25.2134   24.7863    4.9516 H         1 UNK         0.0767 
    102 H102       25.7798   23.5643    6.0905 H         1 UNK         0.0767 
    103 H103       26.1709   25.2569    6.3490 H         1 UNK         0.0767 
    104 H104       26.2339   23.1236    3.4137 H         1 UNK         0.3013 
    105 H105       30.7707   28.8668   -0.8467 H         1 UNK         0.3121 
    106 H106       30.9953   31.7811   -0.8234 H         1 UNK         0.0774 
    107 H107       32.5464   31.6767    1.1387 H         1 UNK         0.0815 
    108 H108       33.3205   30.9329   -0.2483 H         1 UNK         0.0815 
    109 H109       32.6322   29.9247    1.0230 H         1 UNK         0.0815 
    110 H110       30.1565   32.5447    1.2975 H         1 UNK         0.2987 
    111 H111       27.7846   31.1177    2.2010 H         1 UNK         0.0949 
    112 H112       29.1485   33.6809    3.2212 H         1 UNK         0.0806 
    113 H113       27.8499   33.6210    2.0296 H         1 UNK         0.0806 
    114 H114       27.5471   33.1211    3.6836 H         1 UNK         0.0806 
    115 H115       27.4415   30.4351    4.4035 H         1 UNK         0.3010 
    116 H116       29.3759   28.7182    5.3936 H         1 UNK         0.0829 
    117 H117       26.9569   28.4330    5.8168 H         1 UNK         0.0813 
    118 H118       27.8182   28.4502    7.3421 H         1 UNK         0.0813 
    119 H119       26.9254   29.8773    6.8317 H         1 UNK         0.0813 
    120 H120       28.8494   32.0666    6.3672 H         1 UNK         0.3038 
    121 H121       30.4575   32.0767    8.7239 H         1 UNK         0.0769 
    122 H122       29.7450   34.3488    6.7869 H         1 UNK         0.0811 
    123 H123       30.4117   34.5568    8.4001 H         1 UNK         0.0811 
    124 H124       28.8115   33.8636    8.2039 H         1 UNK         0.0811 
    125 H125       31.3386   32.0973    5.3251 H         1 UNK         0.3204 
    126 H126       34.1778   32.8061    5.9307 H         1 UNK         0.0748 
    127 H127       33.1756   34.1079    4.0954 H         1 UNK         0.0771 
    128 H128       34.3596   32.9896    3.4366 H         1 UNK         0.0771 
    129 H129       32.6416   32.6390    3.2857 H         1 UNK         0.0771 
    130 H130       32.0529   30.3094    4.4557 H         1 UNK         0.2980 
    131 H131       34.1428   28.5208    3.8056 H         1 UNK         0.0545 
    132 H132       33.1961   27.5072    7.6731 H         1 UNK         0.3459 
    133 H133       32.2606   28.7641    6.9031 H         1 UNK         0.3459 
    134 H134       31.2870   27.5488    4.2381 H         1 UNK         0.0616 
    135 H135       31.6279   28.6737    2.9557 H         1 UNK         0.0616 
    136 H136       30.9037   27.3392    1.0351 H         1 UNK         0.0634 
    137 H137       30.3506   26.0775    2.1172 H         1 UNK         0.0634 
@<TRIPOS>BOND
     1    1    2 1    
     2    1   72 1    
     3    1   73 1    
     4    1   74 1    
     5    2    3 2    
     6    2    4 am   BACKBONE|DICT|INTERRES
     7    4    5 1    
     8    4   75 1    
     9    5    6 1    
    10    5   35 1    
    11    5   76 1    
    12    6    7 1    
    13    6   77 1    
    14    6   78 1    
    15    7    8 1    
    16    8    9 1    
    17    8   79 1    
    18    8   80 1    
    19    9   10 ar   
    20    9   14 ar   
    21   10   11 ar   
    22   10   81 1    
    23   11   12 ar   
    24   11   71 1    
    25   12   13 ar   
    26   12   82 1    
    27   13   14 ar   
    28   13   15 1    
    29   14   83 1    
    30   15   16 1    
    31   15   84 1    
    32   15   85 1    
    33   16   17 1    
    34   17   18 1    
    35   17   86 1    
    36   17   87 1    
    37   18   19 1    
    38   18   37 1    
    39   18   88 1    
    40   19   20 am   BACKBONE|DICT|INTERRES
    41   19   89 1    
    42   20   21 2    
    43   20   22 1    
    44   22   23 1    
    45   22   24 1    
    46   22   90 1    
    47   23   91 1    
    48   23   92 1    
    49   23   93 1    
    50   24   25 am   BACKBONE|DICT|INTERRES
    51   24   94 1    
    52   25   26 2    
    53   25   27 1    
    54   27   28 1    
    55   27   29 1    
    56   27   95 1    
    57   28   96 1    
    58   28   97 1    
    59   28   98 1    
    60   29   30 am   BACKBONE|DICT|INTERRES
    61   29   99 1    
    62   30   31 2    
    63   30   32 1    
    64   32   33 1    
    65   32   34 1    
    66   32  100 1    
    67   33  101 1    
    68   33  102 1    
    69   33  103 1    
    70   34   35 am   BACKBONE|DICT|INTERRES
    71   34  104 1    
    72   35   36 2    
    73   37   38 2    
    74   37   39 am   BACKBONE|DICT|INTERRES
    75   39   40 1    
    76   39  105 1    
    77   40   41 1    
    78   40   42 1    
    79   40  106 1    
    80   41  107 1    
    81   41  108 1    
    82   41  109 1    
    83   42   43 2    
    84   42   44 am   BACKBONE|DICT|INTERRES
    85   44   45 1    
    86   44  110 1    
    87   45   46 1    
    88   45   47 1    
    89   45  111 1    
    90   46  112 1    
    91   46  113 1    
    92   46  114 1    
    93   47   48 2    
    94   47   49 am   BACKBONE|DICT|INTERRES
    95   49   50 1    
    96   49  115 1    
    97   50   51 1    
    98   50   52 1    
    99   50  116 1    
   100   51  117 1    
   101   51  118 1    
   102   51  119 1    
   103   52   53 2    
   104   52   54 am   BACKBONE|DICT|INTERRES
   105   54   55 1    
   106   54  120 1    
   107   55   56 1    
   108   55   57 1    
   109   55  121 1    
   110   56  122 1    
   111   56  123 1    
   112   56  124 1    
   113   57   58 2    
   114   57   59 am   BACKBONE|DICT|INTERRES
   115   59   60 1    
   116   59  125 1    
   117   60   61 1    
   118   60   62 1    
   119   60  126 1    
   120   61  127 1    
   121   61  128 1    
   122   61  129 1    
   123   62   63 2    
   124   62   64 am   BACKBONE|DICT|INTERRES
   125   64   65 1    
   126   64  130 1    
   127   65   66 1    
   128   65   69 1    
   129   65  131 1    
   130   66   67 am   BACKBONE|DICT|INTERRES
   131   66   68 2    
   132   67  132 1    
   133   67  133 1    
   134   69   70 1    
   135   69  134 1    
   136   69  135 1    
   137   70   71 1    
   138   71  136 1    
   139   71  137 1    
@<TRIPOS>SUBSTRUCTURE
     1 UNK         1 GROUP             0       ****    0 ROOT    
