@<TRIPOS>MOLECULE
3R136
137   139    1
SMALL
USER_CHARGES


@<TRIPOS>ATOM
      1 CA         27.7889   20.7345    5.2181 C.3       0 UNK        -0.1979 
      2 C          27.8658   21.4361    3.8701 C.2       0 UNK         0.4864 
      3 O          27.7251   22.6578    3.8138 O.2       0 UNK        -0.5359 
      4 N          28.0913   20.6689    2.7940 N.am      1 UNK        -0.4318 
      5 CA         28.1937   21.1228    1.3996 C.3       1 UNK         0.0824 
      6 C6         29.4329   22.0235    1.1246 C.3       12 UNK        -0.0944 
      7 S7         30.9996   21.2105    1.5886 S.3       12 UNK        -0.2672 
      8 C8         31.6788   22.3997    2.8004 C.3       12 UNK         0.0333 
      9 C9         32.0932   23.7588    2.2279 C.ar      12 UNK        -0.0807 
     10 C10        32.2285   24.8427    3.1023 C.ar      12 UNK        -0.0894 
     11 C11        32.6149   26.1015    2.6316 C.ar      12 UNK        -0.0804 
     12 C12        32.8670   26.2734    1.2678 C.ar      12 UNK        -0.0824 
     13 C13        32.7388   25.2045    0.3769 C.ar      12 UNK        -0.0762 
     14 C14        32.3632   23.9507    0.8659 C.ar      12 UNK        -0.0782 
     15 C15        33.0339   25.3766   -1.1105 C.3       12 UNK         0.0230 
     16 S16        32.2687   26.8545   -1.8581 S.3       12 UNK        -0.2608 
     17 C17        30.4830   26.5384   -1.6447 C.3       12 UNK        -0.0989 
     18 CA         29.7415   27.7958   -1.1218 C.3       5 UNK         0.0716 
     19 N          28.3254   27.7906   -1.4947 N.am      5 UNK        -0.4135 
     20 C          27.7005   28.7830   -2.1455 C.2       4 UNK         0.5031 
     21 O          28.2682   29.7769   -2.6004 O.2       4 UNK        -0.5229 
     22 CA         26.1732   28.6616   -2.3155 C.3       4 UNK         0.0329 
     23 CB         25.8335   28.0024   -3.6621 C.3       4 UNK        -0.2001 
     24 N          25.5249   27.9136   -1.2362 N.am      4 UNK        -0.4303 
     25 C          25.5029   28.2831    0.0527 C.2       3 UNK         0.5044 
     26 O          25.9266   29.3642    0.4606 O.2       3 UNK        -0.5152 
     27 CA         24.9431   27.2673    1.0666 C.3       3 UNK         0.0319 
     28 CB         23.5301   27.6794    1.5101 C.3       3 UNK        -0.2001 
     29 N          24.9127   25.8692    0.6107 N.am      3 UNK        -0.4354 
     30 C          25.9693   25.1437    0.2189 C.2       2 UNK         0.4964 
     31 O          27.1092   25.5981    0.0774 O.2       2 UNK        -0.5047 
     32 CA         25.7073   23.6740   -0.1124 C.3       2 UNK         0.0288 
     33 CB         25.4817   23.4880   -1.6223 C.3       2 UNK        -0.2113 
     34 N          26.8771   22.9109    0.3083 N.am      2 UNK        -0.4145 
     35 C          26.8495   21.7211    0.9205 C.2       1 UNK         0.5006 
     36 O          25.8117   21.0802    1.1090 O.2       1 UNK        -0.5103 
     37 C          29.8838   27.9642    0.4022 C.2       5 UNK         0.5055 
     38 O          30.7146   28.7574    0.8484 O.2       5 UNK        -0.5220 
     39 N          29.0574   27.2483    1.1801 N.am      6 UNK        -0.4450 
     40 CA         29.0449   27.2501    2.6435 C.3       6 UNK         0.0367 
     41 CB         28.3983   25.9488    3.1492 C.3       6 UNK        -0.1929 
     42 C          28.3965   28.5127    3.2392 C.2       6 UNK         0.5070 
     43 O          27.4459   28.4182    4.0184 O.2       6 UNK        -0.5237 
     44 N          28.9445   29.6824    2.8933 N.am      7 UNK        -0.4739 
     45 CA         28.5946   30.9938    3.4416 C.3       7 UNK         0.0276 
     46 CB         29.0443   32.0784    2.4458 C.3       7 UNK        -0.1927 
     47 C          29.2129   31.1794    4.8408 C.2       7 UNK         0.5013 
     48 O          30.0681   32.0460    5.0345 O.2       7 UNK        -0.5193 
     49 N          28.8040   30.3185    5.7836 N.am      8 UNK        -0.4253 
     50 CA         29.3636   30.1584    7.1285 C.3       8 UNK         0.0242 
     51 CB         29.0101   31.3727    8.0191 C.3       8 UNK        -0.2000 
     52 C          30.8689   29.8348    7.0476 C.2       8 UNK         0.4948 
     53 O          31.2246   28.8036    6.4760 O.2       8 UNK        -0.5275 
     54 N          31.7177   30.7155    7.5907 N.am      9 UNK        -0.4246 
     55 CA         33.1757   30.5987    7.5503 C.3       9 UNK         0.0261 
     56 CB         33.7601   31.3024    8.7872 C.3       9 UNK        -0.1959 
     57 C          33.8076   31.1654    6.2644 C.2       9 UNK         0.5033 
     58 O          34.9997   30.9378    6.0475 O.2       9 UNK        -0.5390 
     59 N          33.0481   31.9029    5.4384 N.am      10 UNK        -0.4215 
     60 CA         33.5500   32.5705    4.2321 C.3       10 UNK         0.0240 
     61 CB         32.6951   33.8184    3.9394 C.3       10 UNK        -0.1982 
     62 C          33.6262   31.6032    3.0365 C.2       10 UNK         0.4970 
     63 O          32.9510   31.8117    2.0276 O.2       10 UNK        -0.4916 
     64 N          34.4500   30.5586    3.1771 N.am      11 UNK        -0.4279 
     65 CA         34.6841   29.5248    2.1564 C.3       11 UNK         0.1003 
     66 C          35.5216   29.9900    0.9293 C.2       11 UNK         0.5709 
     67 N          36.1607   31.1539    0.9575 N.am      11 UNK        -0.7358 
     68 O          35.5895   29.2797   -0.0706 O.2       11 UNK        -0.4999 
     69 C69        35.2831   28.2263    2.7673 C.3       12 UNK        -0.0954 
     70 S70        34.3940   27.5605    4.2183 S.3       12 UNK        -0.2268 
     71 C71        32.7087   27.2830    3.5901 C.3       12 UNK         0.0203 
     72 H72        27.9393   19.6588    5.1282 H         1 UNK         0.0888 
     73 H73        28.5522   21.1285    5.8886 H         1 UNK         0.0888 
     74 H74        26.8138   20.9042    5.6736 H         1 UNK         0.0888 
     75 H75        28.1723   19.6697    2.9185 H         1 UNK         0.3017 
     76 H76        28.3224   20.2164    0.8059 H         1 UNK         0.0873 
     77 H77        29.3461   22.9750    1.6511 H         1 UNK         0.0745 
     78 H78        29.5062   22.2636    0.0624 H         1 UNK         0.0745 
     79 H79        30.9396   22.5423    3.5907 H         1 UNK         0.0705 
     80 H80        32.5517   21.9467    3.2717 H         1 UNK         0.0705 
     81 H81        32.0267   24.7079    4.1564 H         1 UNK         0.1334 
     82 H82        33.1501   27.2452    0.8907 H         1 UNK         0.1417 
     83 H83        32.2868   23.1235    0.1750 H         1 UNK         0.1562 
     84 H84        32.7091   24.5008   -1.6746 H         1 UNK         0.0748 
     85 H85        34.1147   25.4424   -1.2418 H         1 UNK         0.0748 
     86 H86        30.3110   25.6719   -1.0029 H         1 UNK         0.0940 
     87 H87        30.0962   26.2596   -2.6263 H         1 UNK         0.0940 
     88 H88        30.2174   28.6705   -1.5707 H         1 UNK         0.0703 
     89 H89        27.7702   27.0196   -1.1396 H         1 UNK         0.3081 
     90 H90        25.7610   29.6729   -2.3134 H         1 UNK         0.0719 
     91 H91        26.2839   28.5524   -4.4897 H         1 UNK         0.0809 
     92 H92        26.2003   26.9764   -3.7149 H         1 UNK         0.0809 
     93 H93        24.7574   27.9849   -3.8358 H         1 UNK         0.0809 
     94 H94        25.1330   27.0149   -1.4760 H         1 UNK         0.2990 
     95 H95        25.5957   27.3079    1.9409 H         1 UNK         0.0690 
     96 H96        23.5212   28.7037    1.8861 H         1 UNK         0.0788 
     97 H97        23.1632   27.0408    2.3139 H         1 UNK         0.0788 
     98 H98        22.8174   27.6286    0.6859 H         1 UNK         0.0788 
     99 H99        24.0132   25.4118    0.6624 H         1 UNK         0.2993 
    100 H100       24.8225   23.3414    0.4353 H         1 UNK         0.0949 
    101 H101       25.3063   22.4404   -1.8681 H         1 UNK         0.0767 
    102 H102       24.6108   24.0502   -1.9618 H         1 UNK         0.0767 
    103 H103       26.3398   23.8279   -2.2041 H         1 UNK         0.0767 
    104 H104       27.7504   23.4161    0.2388 H         1 UNK         0.3013 
    105 H105       28.3774   26.6307    0.7418 H         1 UNK         0.3121 
    106 H106       30.0760   27.2452    2.9894 H         1 UNK         0.0774 
    107 H107       28.4429   25.8870    4.2371 H         1 UNK         0.0815 
    108 H108       27.3496   25.8744    2.8636 H         1 UNK         0.0815 
    109 H109       28.9159   25.0727    2.7596 H         1 UNK         0.0815 
    110 H110       29.7242   29.6505    2.2409 H         1 UNK         0.2987 
    111 H111       27.5094   31.0592    3.5470 H         1 UNK         0.0949 
    112 H112       28.8008   33.0752    2.8157 H         1 UNK         0.0806 
    113 H113       30.1213   32.0465    2.2745 H         1 UNK         0.0806 
    114 H114       28.5490   31.9595    1.4819 H         1 UNK         0.0806 
    115 H115       28.1481   29.6017    5.4865 H         1 UNK         0.3010 
    116 H116       28.8859   29.2786    7.5623 H         1 UNK         0.0829 
    117 H117       29.4291   32.3059    7.6413 H         1 UNK         0.0813 
    118 H118       27.9299   31.5047    8.0814 H         1 UNK         0.0813 
    119 H119       29.3697   31.2323    9.0395 H         1 UNK         0.0813 
    120 H120       31.3374   31.5457    8.0223 H         1 UNK         0.3038 
    121 H121       33.4498   29.5425    7.6029 H         1 UNK         0.0769 
    122 H122       33.5310   32.3688    8.7923 H         1 UNK         0.0811 
    123 H123       34.8462   31.2029    8.8173 H         1 UNK         0.0811 
    124 H124       33.3729   30.8700    9.7100 H         1 UNK         0.0811 
    125 H125       32.0497   31.9810    5.6090 H         1 UNK         0.3204 
    126 H126       34.5665   32.9217    4.4226 H         1 UNK         0.0748 
    127 H127       33.1056   34.3815    3.1003 H         1 UNK         0.0771 
    128 H128       31.6684   33.5601    3.6814 H         1 UNK         0.0771 
    129 H129       32.6661   34.4909    4.7969 H         1 UNK         0.0771 
    130 H130       34.9401   30.4504    4.0588 H         1 UNK         0.2980 
    131 H131       33.7083   29.2783    1.7385 H         1 UNK         0.0545 
    132 H132       36.6960   31.4418    0.1537 H         1 UNK         0.3459 
    133 H133       36.1153   31.7435    1.7724 H         1 UNK         0.3459 
    134 H134       36.3120   28.4090    3.0821 H         1 UNK         0.0616 
    135 H135       35.3405   27.4371    2.0161 H         1 UNK         0.0616 
    136 H136       32.0606   27.1059    4.4495 H         1 UNK         0.0634 
    137 H137       32.3256   28.1896    3.1220 H         1 UNK         0.0634 
@<TRIPOS>BOND
     1    1    2 1    
     2    1   72 1    
     3    1   73 1    
     4    1   74 1    
     5    2    3 2    
     6    2    4 am   BACKBONE|DICT|INTERRES
     7    4    5 1    
     8    4   75 1    
     9    5    6 1    
    10    5   35 1    
    11    5   76 1    
    12    6    7 1    
    13    6   77 1    
    14    6   78 1    
    15    7    8 1    
    16    8    9 1    
    17    8   79 1    
    18    8   80 1    
    19    9   10 ar   
    20    9   14 ar   
    21   10   11 ar   
    22   10   81 1    
    23   11   12 ar   
    24   11   71 1    
    25   12   13 ar   
    26   12   82 1    
    27   13   14 ar   
    28   13   15 1    
    29   14   83 1    
    30   15   16 1    
    31   15   84 1    
    32   15   85 1    
    33   16   17 1    
    34   17   18 1    
    35   17   86 1    
    36   17   87 1    
    37   18   19 1    
    38   18   37 1    
    39   18   88 1    
    40   19   20 am   BACKBONE|DICT|INTERRES
    41   19   89 1    
    42   20   21 2    
    43   20   22 1    
    44   22   23 1    
    45   22   24 1    
    46   22   90 1    
    47   23   91 1    
    48   23   92 1    
    49   23   93 1    
    50   24   25 am   BACKBONE|DICT|INTERRES
    51   24   94 1    
    52   25   26 2    
    53   25   27 1    
    54   27   28 1    
    55   27   29 1    
    56   27   95 1    
    57   28   96 1    
    58   28   97 1    
    59   28   98 1    
    60   29   30 am   BACKBONE|DICT|INTERRES
    61   29   99 1    
    62   30   31 2    
    63   30   32 1    
    64   32   33 1    
    65   32   34 1    
    66   32  100 1    
    67   33  101 1    
    68   33  102 1    
    69   33  103 1    
    70   34   35 am   BACKBONE|DICT|INTERRES
    71   34  104 1    
    72   35   36 2    
    73   37   38 2    
    74   37   39 am   BACKBONE|DICT|INTERRES
    75   39   40 1    
    76   39  105 1    
    77   40   41 1    
    78   40   42 1    
    79   40  106 1    
    80   41  107 1    
    81   41  108 1    
    82   41  109 1    
    83   42   43 2    
    84   42   44 am   BACKBONE|DICT|INTERRES
    85   44   45 1    
    86   44  110 1    
    87   45   46 1    
    88   45   47 1    
    89   45  111 1    
    90   46  112 1    
    91   46  113 1    
    92   46  114 1    
    93   47   48 2    
    94   47   49 am   BACKBONE|DICT|INTERRES
    95   49   50 1    
    96   49  115 1    
    97   50   51 1    
    98   50   52 1    
    99   50  116 1    
   100   51  117 1    
   101   51  118 1    
   102   51  119 1    
   103   52   53 2    
   104   52   54 am   BACKBONE|DICT|INTERRES
   105   54   55 1    
   106   54  120 1    
   107   55   56 1    
   108   55   57 1    
   109   55  121 1    
   110   56  122 1    
   111   56  123 1    
   112   56  124 1    
   113   57   58 2    
   114   57   59 am   BACKBONE|DICT|INTERRES
   115   59   60 1    
   116   59  125 1    
   117   60   61 1    
   118   60   62 1    
   119   60  126 1    
   120   61  127 1    
   121   61  128 1    
   122   61  129 1    
   123   62   63 2    
   124   62   64 am   BACKBONE|DICT|INTERRES
   125   64   65 1    
   126   64  130 1    
   127   65   66 1    
   128   65   69 1    
   129   65  131 1    
   130   66   67 am   BACKBONE|DICT|INTERRES
   131   66   68 2    
   132   67  132 1    
   133   67  133 1    
   134   69   70 1    
   135   69  134 1    
   136   69  135 1    
   137   70   71 1    
   138   71  136 1    
   139   71  137 1    
@<TRIPOS>SUBSTRUCTURE
     1 UNK         1 GROUP             0       ****    0 ROOT    
