@<TRIPOS>MOLECULE
3R136
137   139    1
SMALL
USER_CHARGES


@<TRIPOS>ATOM
      1 CA         28.2432   18.5547   -1.2235 C.3       0 UNK        -0.1979 
      2 C          29.4025   19.2487   -0.5248 C.2       0 UNK         0.4864 
      3 O          30.5618   18.9427   -0.8068 O.2       0 UNK        -0.5359 
      4 N          29.1043   20.1960    0.3727 N.am      1 UNK        -0.4318 
      5 CA         30.0457   20.9772    1.1898 C.3       1 UNK         0.0824 
      6 C6         29.3713   21.5015    2.4938 C.3       12 UNK        -0.0944 
      7 S7         27.6847   22.1766    2.2682 S.3       12 UNK        -0.2672 
      8 C8         27.9736   23.9701    2.2263 C.3       12 UNK         0.0333 
      9 C9         27.8575   24.6180    3.5946 C.ar      12 UNK        -0.0807 
     10 C10        28.9519   24.6592    4.4624 C.ar      12 UNK        -0.0894 
     11 C11        28.8651   25.3401    5.6807 C.ar      12 UNK        -0.0804 
     12 C12        27.6713   25.9818    6.0292 C.ar      12 UNK        -0.0824 
     13 C13        26.5765   25.9583    5.1587 C.ar      12 UNK        -0.0762 
     14 C14        26.6674   25.2505    3.9577 C.ar      12 UNK        -0.0782 
     15 C15        25.3236   26.7662    5.4610 C.3       12 UNK         0.0230 
     16 S16        25.0802   28.0882    4.2237 S.3       12 UNK        -0.2608 
     17 C17        26.5119   29.1795    4.5361 C.3       12 UNK        -0.0989 
     18 CA         27.7985   28.7864    3.7539 C.3       5 UNK         0.0716 
     19 N          27.5481   28.6502    2.3131 N.am      5 UNK        -0.4135 
     20 C          28.4149   28.2008    1.3948 C.2       4 UNK         0.5031 
     21 O          29.5879   27.9093    1.6380 O.2       4 UNK        -0.5229 
     22 CA         27.8625   28.0626   -0.0387 C.3       4 UNK         0.0329 
     23 CB         27.4026   29.4209   -0.5994 C.3       4 UNK        -0.2001 
     24 N          28.8616   27.4992   -0.9498 N.am      4 UNK        -0.4303 
     25 C          29.1204   26.1957   -1.1098 C.2       3 UNK         0.5044 
     26 O          28.4478   25.2981   -0.6024 O.2       3 UNK        -0.5152 
     27 CA         30.3030   25.8312   -2.0226 C.3       3 UNK         0.0319 
     28 CB         31.3971   26.9203   -2.0921 C.3       3 UNK        -0.2001 
     29 N          30.8926   24.5633   -1.5924 N.am      3 UNK        -0.4354 
     30 C          31.5106   23.6871   -2.3897 C.2       2 UNK         0.4964 
     31 O          31.6065   23.8300   -3.6096 O.2       2 UNK        -0.5047 
     32 CA         32.1571   22.4494   -1.7394 C.3       2 UNK         0.0288 
     33 CB         33.5120   22.8133   -1.0999 C.3       2 UNK        -0.2113 
     34 N          31.3082   21.6979   -0.8031 N.am      2 UNK        -0.4145 
     35 C          30.8234   22.0592    0.3932 C.2       1 UNK         0.5006 
     36 O          30.9985   23.1775    0.8759 O.2       1 UNK        -0.5103 
     37 C          28.9611   29.7363    4.1135 C.2       5 UNK         0.5055 
     38 O          29.4521   30.4815    3.2620 O.2       5 UNK        -0.5220 
     39 N          29.3580   29.7087    5.3949 N.am      6 UNK        -0.4450 
     40 CA         30.4811   30.4448    5.9876 C.3       6 UNK         0.0367 
     41 CB         30.4695   30.2554    7.5135 C.3       6 UNK        -0.1929 
     42 C          30.5360   31.9430    5.6418 C.2       6 UNK         0.5070 
     43 O          31.6000   32.4456    5.2836 O.2       6 UNK        -0.5237 
     44 N          29.3827   32.6171    5.7212 N.am      7 UNK        -0.4739 
     45 CA         29.2380   34.0408    5.4055 C.3       7 UNK         0.0276 
     46 CB         27.9836   34.5770    6.1158 C.3       7 UNK        -0.1927 
     47 C          29.1663   34.3414    3.8958 C.2       7 UNK         0.5013 
     48 O          29.3107   35.5048    3.5173 O.2       7 UNK        -0.5193 
     49 N          28.9135   33.3176    3.0699 N.am      8 UNK        -0.4253 
     50 CA         28.6988   33.4415    1.6293 C.3       8 UNK         0.0242 
     51 CB         27.4978   32.5723    1.2202 C.3       8 UNK        -0.2000 
     52 C          29.9488   33.0601    0.8250 C.2       8 UNK         0.4948 
     53 O          30.3372   33.8203   -0.0631 O.2       8 UNK        -0.5275 
     54 N          30.5459   31.8982    1.1267 N.am      9 UNK        -0.4246 
     55 CA         31.6669   31.3316    0.3672 C.3       9 UNK         0.0261 
     56 CB         31.1261   30.4531   -0.7758 C.3       9 UNK        -0.1959 
     57 C          32.6834   30.5703    1.2351 C.2       9 UNK         0.5033 
     58 O          33.5216   29.8636    0.6742 O.2       9 UNK        -0.5390 
     59 N          32.6277   30.7380    2.5653 N.am      10 UNK        -0.4215 
     60 CA         33.5543   30.1639    3.5525 C.3       10 UNK         0.0240 
     61 CB         34.9845   30.7171    3.3574 C.3       10 UNK        -0.1982 
     62 C          33.5135   28.6225    3.6488 C.2       10 UNK         0.4970 
     63 O          34.5375   28.0178    3.9732 O.2       10 UNK        -0.4916 
     64 N          32.3405   28.0175    3.4040 N.am      11 UNK        -0.4279 
     65 CA         32.1021   26.5623    3.4489 C.3       11 UNK         0.1003 
     66 C          32.8990   25.8038    2.3408 C.2       11 UNK         0.5709 
     67 N          33.4130   24.6082    2.6051 N.am      11 UNK        -0.7358 
     68 O          33.0267   26.2791    1.2152 O.2       11 UNK        -0.4999 
     69 C69        32.2591   25.9549    4.8793 C.3       12 UNK        -0.0954 
     70 S70        31.2060   26.7497    6.1412 S.3       12 UNK        -0.2268 
     71 C71        30.0667   25.4075    6.6106 C.3       12 UNK         0.0203 
     72 H72        27.2784   18.9213   -0.8734 H         1 UNK         0.0888 
     73 H73        28.2994   18.7205   -2.2990 H         1 UNK         0.0888 
     74 H74        28.2842   17.4813   -1.0411 H         1 UNK         0.0888 
     75 H75        28.1339   20.4268    0.5388 H         1 UNK         0.3017 
     76 H76        30.8243   20.2837    1.5154 H         1 UNK         0.0873 
     77 H77        29.2703   20.6649    3.1868 H         1 UNK         0.0745 
     78 H78        30.0039   22.2174    3.0191 H         1 UNK         0.0745 
     79 H79        27.2393   24.4108    1.5510 H         1 UNK         0.0705 
     80 H80        28.9450   24.2007    1.7948 H         1 UNK         0.0705 
     81 H81        29.8793   24.1851    4.1770 H         1 UNK         0.1334 
     82 H82        27.6090   26.5307    6.9589 H         1 UNK         0.1417 
     83 H83        25.8265   25.2461    3.2773 H         1 UNK         0.1562 
     84 H84        25.3645   27.2035    6.4598 H         1 UNK         0.0748 
     85 H85        24.4578   26.1027    5.4485 H         1 UNK         0.0748 
     86 H86        26.6895   29.1950    5.6128 H         1 UNK         0.0940 
     87 H87        26.2111   30.1955    4.2716 H         1 UNK         0.0940 
     88 H88        28.1318   27.8040    4.0809 H         1 UNK         0.0703 
     89 H89        26.6065   28.8650    2.0218 H         1 UNK         0.3081 
     90 H90        27.0004   27.3931   -0.0016 H         1 UNK         0.0719 
     91 H91        28.2006   30.1628   -0.5741 H         1 UNK         0.0809 
     92 H92        27.0664   29.3289   -1.6325 H         1 UNK         0.0809 
     93 H93        26.5637   29.8233   -0.0311 H         1 UNK         0.0809 
     94 H94        29.4861   28.1582   -1.3878 H         1 UNK         0.2990 
     95 H95        29.8825   25.7001   -3.0217 H         1 UNK         0.0690 
     96 H96        32.2483   26.5906   -2.6879 H         1 UNK         0.0788 
     97 H97        31.7712   27.1772   -1.0995 H         1 UNK         0.0788 
     98 H98        31.0269   27.8332   -2.5591 H         1 UNK         0.0788 
     99 H99        30.8144   24.3399   -0.6016 H         1 UNK         0.2993 
    100 H100       32.3648   21.7520   -2.5530 H         1 UNK         0.0949 
    101 H101       33.3981   23.5320   -0.2879 H         1 UNK         0.0767 
    102 H102       34.0139   21.9312   -0.7020 H         1 UNK         0.0767 
    103 H103       34.1800   23.2632   -1.8356 H         1 UNK         0.0767 
    104 H104       31.1083   20.7391   -1.0791 H         1 UNK         0.3013 
    105 H105       28.9018   29.0551    6.0142 H         1 UNK         0.3121 
    106 H106       31.3878   29.9784    5.6068 H         1 UNK         0.0774 
    107 H107       31.3099   30.7743    7.9771 H         1 UNK         0.0815 
    108 H108       29.5569   30.6469    7.9644 H         1 UNK         0.0815 
    109 H109       30.5538   29.2043    7.7883 H         1 UNK         0.0815 
    110 H110       28.5524   32.1243    6.0172 H         1 UNK         0.2987 
    111 H111       30.1057   34.5759    5.7986 H         1 UNK         0.0949 
    112 H112       27.8598   35.6462    5.9375 H         1 UNK         0.0806 
    113 H113       27.0773   34.0818    5.7648 H         1 UNK         0.0806 
    114 H114       28.0478   34.4374    7.1951 H         1 UNK         0.0806 
    115 H115       28.8979   32.3777    3.4494 H         1 UNK         0.3010 
    116 H116       28.4520   34.4756    1.3780 H         1 UNK         0.0829 
    117 H117       26.5811   32.9195    1.6969 H         1 UNK         0.0813 
    118 H118       27.3357   32.6088    0.1421 H         1 UNK         0.0813 
    119 H119       27.6401   31.5283    1.4977 H         1 UNK         0.0813 
    120 H120       30.1467   31.3160    1.8641 H         1 UNK         0.3038 
    121 H121       32.2380   32.1475   -0.0807 H         1 UNK         0.0769 
    122 H122       31.9331   30.1056   -1.4220 H         1 UNK         0.0811 
    123 H123       30.4231   30.9983   -1.4053 H         1 UNK         0.0811 
    124 H124       30.6241   29.5725   -0.3792 H         1 UNK         0.0811 
    125 H125       31.9128   31.3463    2.9421 H         1 UNK         0.3204 
    126 H126       33.2274   30.5269    4.5242 H         1 UNK         0.0748 
    127 H127       35.6308   30.4336    4.1890 H         1 UNK         0.0771 
    128 H128       35.4473   30.3384    2.4457 H         1 UNK         0.0771 
    129 H129       34.9851   31.8060    3.3081 H         1 UNK         0.0771 
    130 H130       31.5634   28.5679    3.0656 H         1 UNK         0.2980 
    131 H131       31.0578   26.4292    3.1689 H         1 UNK         0.0545 
    132 H132       33.8986   24.1182    1.8724 H         1 UNK         0.3459 
    133 H133       33.3182   24.1880    3.5145 H         1 UNK         0.3459 
    134 H134       32.0307   24.8894    4.8658 H         1 UNK         0.0616 
    135 H135       33.2940   26.0296    5.2154 H         1 UNK         0.0616 
    136 H136       30.5909   24.4510    6.6294 H         1 UNK         0.0634 
    137 H137       29.7326   25.5842    7.6340 H         1 UNK         0.0634 
@<TRIPOS>BOND
     1    1    2 1    
     2    1   72 1    
     3    1   73 1    
     4    1   74 1    
     5    2    3 2    
     6    2    4 am   BACKBONE|DICT|INTERRES
     7    4    5 1    
     8    4   75 1    
     9    5    6 1    
    10    5   35 1    
    11    5   76 1    
    12    6    7 1    
    13    6   77 1    
    14    6   78 1    
    15    7    8 1    
    16    8    9 1    
    17    8   79 1    
    18    8   80 1    
    19    9   10 ar   
    20    9   14 ar   
    21   10   11 ar   
    22   10   81 1    
    23   11   12 ar   
    24   11   71 1    
    25   12   13 ar   
    26   12   82 1    
    27   13   14 ar   
    28   13   15 1    
    29   14   83 1    
    30   15   16 1    
    31   15   84 1    
    32   15   85 1    
    33   16   17 1    
    34   17   18 1    
    35   17   86 1    
    36   17   87 1    
    37   18   19 1    
    38   18   37 1    
    39   18   88 1    
    40   19   20 am   BACKBONE|DICT|INTERRES
    41   19   89 1    
    42   20   21 2    
    43   20   22 1    
    44   22   23 1    
    45   22   24 1    
    46   22   90 1    
    47   23   91 1    
    48   23   92 1    
    49   23   93 1    
    50   24   25 am   BACKBONE|DICT|INTERRES
    51   24   94 1    
    52   25   26 2    
    53   25   27 1    
    54   27   28 1    
    55   27   29 1    
    56   27   95 1    
    57   28   96 1    
    58   28   97 1    
    59   28   98 1    
    60   29   30 am   BACKBONE|DICT|INTERRES
    61   29   99 1    
    62   30   31 2    
    63   30   32 1    
    64   32   33 1    
    65   32   34 1    
    66   32  100 1    
    67   33  101 1    
    68   33  102 1    
    69   33  103 1    
    70   34   35 am   BACKBONE|DICT|INTERRES
    71   34  104 1    
    72   35   36 2    
    73   37   38 2    
    74   37   39 am   BACKBONE|DICT|INTERRES
    75   39   40 1    
    76   39  105 1    
    77   40   41 1    
    78   40   42 1    
    79   40  106 1    
    80   41  107 1    
    81   41  108 1    
    82   41  109 1    
    83   42   43 2    
    84   42   44 am   BACKBONE|DICT|INTERRES
    85   44   45 1    
    86   44  110 1    
    87   45   46 1    
    88   45   47 1    
    89   45  111 1    
    90   46  112 1    
    91   46  113 1    
    92   46  114 1    
    93   47   48 2    
    94   47   49 am   BACKBONE|DICT|INTERRES
    95   49   50 1    
    96   49  115 1    
    97   50   51 1    
    98   50   52 1    
    99   50  116 1    
   100   51  117 1    
   101   51  118 1    
   102   51  119 1    
   103   52   53 2    
   104   52   54 am   BACKBONE|DICT|INTERRES
   105   54   55 1    
   106   54  120 1    
   107   55   56 1    
   108   55   57 1    
   109   55  121 1    
   110   56  122 1    
   111   56  123 1    
   112   56  124 1    
   113   57   58 2    
   114   57   59 am   BACKBONE|DICT|INTERRES
   115   59   60 1    
   116   59  125 1    
   117   60   61 1    
   118   60   62 1    
   119   60  126 1    
   120   61  127 1    
   121   61  128 1    
   122   61  129 1    
   123   62   63 2    
   124   62   64 am   BACKBONE|DICT|INTERRES
   125   64   65 1    
   126   64  130 1    
   127   65   66 1    
   128   65   69 1    
   129   65  131 1    
   130   66   67 am   BACKBONE|DICT|INTERRES
   131   66   68 2    
   132   67  132 1    
   133   67  133 1    
   134   69   70 1    
   135   69  134 1    
   136   69  135 1    
   137   70   71 1    
   138   71  136 1    
   139   71  137 1    
@<TRIPOS>SUBSTRUCTURE
     1 UNK         1 GROUP             0       ****    0 ROOT    
