@<TRIPOS>MOLECULE
3R136
137   139    1
SMALL
USER_CHARGES


@<TRIPOS>ATOM
      1 CA         26.9640   17.8538    2.6135 C.3       0 UNK        -0.1979 
      2 C          27.6454   18.7672    1.6052 C.2       0 UNK         0.4864 
      3 O          28.5529   18.3280    0.8970 O.2       0 UNK        -0.5359 
      4 N          27.2128   20.0291    1.5328 N.am      1 UNK        -0.4318 
      5 CA         27.7391   21.0581    0.6380 C.3       1 UNK         0.0824 
      6 C6         29.0978   21.6514    1.1027 C.3       12 UNK        -0.0944 
      7 S7         29.1683   22.1341    2.8662 S.3       12 UNK        -0.2672 
      8 C8         30.9391   21.9288    3.2391 C.3       12 UNK         0.0333 
      9 C9         31.7666   23.1288    2.7941 C.ar      12 UNK        -0.0807 
     10 C10        32.2878   24.0174    3.7411 C.ar      12 UNK        -0.0894 
     11 C11        33.0906   25.0904    3.3412 C.ar      12 UNK        -0.0804 
     12 C12        33.3477   25.2879    1.9803 C.ar      12 UNK        -0.0824 
     13 C13        32.8221   24.4152    1.0219 C.ar      12 UNK        -0.0762 
     14 C14        32.0471   23.3299    1.4390 C.ar      12 UNK        -0.0782 
     15 C15        33.1332   24.6017   -0.4591 C.3       12 UNK         0.0230 
     16 S16        32.6353   26.2296   -1.1112 S.3       12 UNK        -0.2608 
     17 C17        30.8121   26.1767   -1.0122 C.3       12 UNK        -0.0989 
     18 CA         30.2434   27.4642   -0.3581 C.3       5 UNK         0.0716 
     19 N          28.9090   27.7960   -0.8619 N.am      5 UNK        -0.4135 
     20 C          28.5323   29.0181   -1.2670 C.2       4 UNK         0.5031 
     21 O          29.2896   29.9865   -1.3360 O.2       4 UNK        -0.5229 
     22 CA         27.0568   29.2101   -1.6678 C.3       4 UNK         0.0329 
     23 CB         26.8879   29.0390   -3.1861 C.3       4 UNK        -0.2001 
     24 N          26.1311   28.3102   -0.9774 N.am      4 UNK        -0.4303 
     25 C          25.9246   28.2847    0.3469 C.2       3 UNK         0.5044 
     26 O          26.4553   29.0611    1.1390 O.2       3 UNK        -0.5152 
     27 CA         25.0081   27.1721    0.8853 C.3       3 UNK         0.0319 
     28 CB         23.5648   27.6845    1.0112 C.3       3 UNK        -0.2001 
     29 N          25.0176   25.9341    0.0938 N.am      3 UNK        -0.4354 
     30 C          26.1007   25.2055   -0.2127 C.2       2 UNK         0.4964 
     31 O          27.2572   25.5274    0.0752 O.2       2 UNK        -0.5047 
     32 CA         25.8548   23.9484   -1.0572 C.3       2 UNK         0.0288 
     33 CB         26.0424   24.2724   -2.5485 C.3       2 UNK        -0.2113 
     34 N          26.7679   22.8685   -0.6847 N.am      2 UNK        -0.4145 
     35 C          26.6607   22.1340    0.4307 C.2       1 UNK         0.5006 
     36 O          25.7526   22.2642    1.2582 O.2       1 UNK        -0.5103 
     37 C          30.2336   27.3698    1.1782 C.2       5 UNK         0.5055 
     38 O          31.1758   27.8449    1.8050 O.2       5 UNK        -0.5220 
     39 N          29.1761   26.7754    1.7525 N.am      6 UNK        -0.4450 
     40 CA         29.0497   26.4718    3.1817 C.3       6 UNK         0.0367 
     41 CB         27.8723   25.5025    3.3762 C.3       6 UNK        -0.1929 
     42 C          28.8749   27.6919    4.1068 C.2       6 UNK         0.5070 
     43 O          28.9906   27.5300    5.3231 O.2       6 UNK        -0.5237 
     44 N          28.5525   28.8687    3.5513 N.am      7 UNK        -0.4739 
     45 CA         28.4011   30.1245    4.2916 C.3       7 UNK         0.0276 
     46 CB         27.8994   31.2193    3.3359 C.3       7 UNK        -0.1927 
     47 C          29.7141   30.5711    4.9560 C.2       7 UNK         0.5013 
     48 O          30.7732   30.4819    4.3335 O.2       7 UNK        -0.5193 
     49 N          29.6196   31.1174    6.1762 N.am      8 UNK        -0.4253 
     50 CA         30.7595   31.5867    6.9774 C.3       8 UNK         0.0242 
     51 CB         30.2548   32.0518    8.3532 C.3       8 UNK        -0.2000 
     52 C          31.6041   32.6917    6.3127 C.2       8 UNK         0.4948 
     53 O          32.7908   32.8052    6.6178 O.2       8 UNK        -0.5275 
     54 N          30.9880   33.4694    5.4117 N.am      9 UNK        -0.4246 
     55 CA         31.6568   34.4706    4.5792 C.3       9 UNK         0.0261 
     56 CB         30.6134   35.4893    4.0903 C.3       9 UNK        -0.1959 
     57 C          32.4137   33.8636    3.3809 C.2       9 UNK         0.5033 
     58 O          33.3061   34.5273    2.8505 O.2       9 UNK        -0.5390 
     59 N          32.0433   32.6465    2.9573 N.am      10 UNK        -0.4215 
     60 CA         32.6638   31.9263    1.8443 C.3       10 UNK         0.0240 
     61 CB         31.5838   31.1706    1.0527 C.3       10 UNK        -0.1982 
     62 C          33.7620   30.9730    2.3399 C.2       10 UNK         0.4970 
     63 O          34.8101   30.8891    1.6973 O.2       10 UNK        -0.4916 
     64 N          33.5235   30.2956    3.4719 N.am      11 UNK        -0.4279 
     65 CA         34.5114   29.4594    4.1717 C.3       11 UNK         0.1003 
     66 C          35.7403   30.2636    4.6836 C.2       11 UNK         0.5709 
     67 N          36.8983   29.6236    4.7840 N.am      11 UNK        -0.7358 
     68 O          35.6526   31.4419    5.0232 O.2       11 UNK        -0.4999 
     69 C69        33.8693   28.6496    5.3305 C.3       12 UNK        -0.0954 
     70 S70        32.6441   27.4398    4.7369 S.3       12 UNK        -0.2268 
     71 C71        33.7143   26.0161    4.3757 C.3       12 UNK         0.0203 
     72 H72        26.1844   18.3729    3.1709 H         1 UNK         0.0888 
     73 H73        27.6940   17.4731    3.3273 H         1 UNK         0.0888 
     74 H74        26.5090   17.0048    2.1041 H         1 UNK         0.0888 
     75 H75        26.4433   20.3515    2.1071 H         1 UNK         0.3017 
     76 H76        27.8910   20.5920   -0.3384 H         1 UNK         0.0873 
     77 H77        29.8756   20.9090    0.9193 H         1 UNK         0.0745 
     78 H78        29.3660   22.5174    0.4955 H         1 UNK         0.0745 
     79 H79        31.0442   21.7798    4.3148 H         1 UNK         0.0705 
     80 H80        31.3194   21.0184    2.7738 H         1 UNK         0.0705 
     81 H81        32.0866   23.8646    4.7927 H         1 UNK         0.1334 
     82 H82        33.9591   26.1226    1.6653 H         1 UNK         0.1417 
     83 H83        31.6718   22.6313    0.7058 H         1 UNK         0.1562 
     84 H84        32.6591   23.8249   -1.0612 H         1 UNK         0.0748 
     85 H85        34.2079   24.4846   -0.6043 H         1 UNK         0.0748 
     86 H86        30.4732   25.2749   -0.4976 H         1 UNK         0.0940 
     87 H87        30.4482   26.0849   -2.0369 H         1 UNK         0.0940 
     88 H88        30.9175   28.2862   -0.6096 H         1 UNK         0.0703 
     89 H89        28.2117   27.0623   -0.8022 H         1 UNK         0.3081 
     90 H90        26.7791   30.2330   -1.4045 H         1 UNK         0.0719 
     91 H91        27.1254   28.0241   -3.5079 H         1 UNK         0.0809 
     92 H92        25.8684   29.2627   -3.5008 H         1 UNK         0.0809 
     93 H93        27.5481   29.7159   -3.7304 H         1 UNK         0.0809 
     94 H94        25.6417   27.6353   -1.5464 H         1 UNK         0.2990 
     95 H95        25.3620   26.9209    1.8852 H         1 UNK         0.0690 
     96 H96        22.9222   26.9488    1.4952 H         1 UNK         0.0788 
     97 H97        23.1330   27.9211    0.0379 H         1 UNK         0.0788 
     98 H98        23.5244   28.5923    1.6151 H         1 UNK         0.0788 
     99 H99        24.1145   25.5998   -0.2116 H         1 UNK         0.2993 
    100 H100       24.8303   23.6047   -0.8973 H         1 UNK         0.0949 
    101 H101       25.8527   23.3976   -3.1711 H         1 UNK         0.0767 
    102 H102       25.3510   25.0520   -2.8712 H         1 UNK         0.0767 
    103 H103       27.0528   24.6238   -2.7628 H         1 UNK         0.0767 
    104 H104       27.5573   22.7200   -1.2959 H         1 UNK         0.3013 
    105 H105       28.4511   26.3860    1.1546 H         1 UNK         0.3121 
    106 H106       29.9673   25.9625    3.4844 H         1 UNK         0.0774 
    107 H107       26.9133   26.0062    3.2666 H         1 UNK         0.0815 
    108 H108       27.8948   25.0616    4.3735 H         1 UNK         0.0815 
    109 H109       27.8988   24.6845    2.6579 H         1 UNK         0.0815 
    110 H110       28.4389   28.9108    2.5478 H         1 UNK         0.2987 
    111 H111       27.6502   29.9643    5.0681 H         1 UNK         0.0949 
    112 H112       28.5796   31.3637    2.4951 H         1 UNK         0.0806 
    113 H113       26.9172   30.9728    2.9330 H         1 UNK         0.0806 
    114 H114       27.8022   32.1776    3.8476 H         1 UNK         0.0806 
    115 H115       28.7105   31.1755    6.6130 H         1 UNK         0.3010 
    116 H116       31.4204   30.7303    7.1279 H         1 UNK         0.0829 
    117 H117       31.0834   32.3803    8.9824 H         1 UNK         0.0813 
    118 H118       29.7486   31.2459    8.8849 H         1 UNK         0.0813 
    119 H119       29.5601   32.8884    8.2672 H         1 UNK         0.0813 
    120 H120       30.0030   33.3217    5.2478 H         1 UNK         0.3038 
    121 H121       32.3880   35.0014    5.1931 H         1 UNK         0.0769 
    122 H122       29.8489   35.0201    3.4696 H         1 UNK         0.0811 
    123 H123       31.0830   36.2715    3.4921 H         1 UNK         0.0811 
    124 H124       30.1147   35.9799    4.9265 H         1 UNK         0.0811 
    125 H125       31.3675   32.1172    3.4998 H         1 UNK         0.3204 
    126 H126       33.1312   32.6384    1.1608 H         1 UNK         0.0748 
    127 H127       32.0249   30.5867    0.2437 H         1 UNK         0.0771 
    128 H128       31.0263   30.4793    1.6842 H         1 UNK         0.0771 
    129 H129       30.8674   31.8579    0.6025 H         1 UNK         0.0771 
    130 H130       32.6028   30.3560    3.8983 H         1 UNK         0.2980 
    131 H131       34.8871   28.7495    3.4323 H         1 UNK         0.0545 
    132 H132       37.7043   30.1233    5.1262 H         1 UNK         0.3459 
    133 H133       36.9860   28.6551    4.5192 H         1 UNK         0.3459 
    134 H134       34.6262   28.1127    5.9058 H         1 UNK         0.0616 
    135 H135       33.3740   29.3224    6.0330 H         1 UNK         0.0616 
    136 H136       34.6815   26.3649    4.0112 H         1 UNK         0.0634 
    137 H137       33.9136   25.4746    5.3016 H         1 UNK         0.0634 
@<TRIPOS>BOND
     1    1    2 1    
     2    1   72 1    
     3    1   73 1    
     4    1   74 1    
     5    2    3 2    
     6    2    4 am   BACKBONE|DICT|INTERRES
     7    4    5 1    
     8    4   75 1    
     9    5    6 1    
    10    5   35 1    
    11    5   76 1    
    12    6    7 1    
    13    6   77 1    
    14    6   78 1    
    15    7    8 1    
    16    8    9 1    
    17    8   79 1    
    18    8   80 1    
    19    9   10 ar   
    20    9   14 ar   
    21   10   11 ar   
    22   10   81 1    
    23   11   12 ar   
    24   11   71 1    
    25   12   13 ar   
    26   12   82 1    
    27   13   14 ar   
    28   13   15 1    
    29   14   83 1    
    30   15   16 1    
    31   15   84 1    
    32   15   85 1    
    33   16   17 1    
    34   17   18 1    
    35   17   86 1    
    36   17   87 1    
    37   18   19 1    
    38   18   37 1    
    39   18   88 1    
    40   19   20 am   BACKBONE|DICT|INTERRES
    41   19   89 1    
    42   20   21 2    
    43   20   22 1    
    44   22   23 1    
    45   22   24 1    
    46   22   90 1    
    47   23   91 1    
    48   23   92 1    
    49   23   93 1    
    50   24   25 am   BACKBONE|DICT|INTERRES
    51   24   94 1    
    52   25   26 2    
    53   25   27 1    
    54   27   28 1    
    55   27   29 1    
    56   27   95 1    
    57   28   96 1    
    58   28   97 1    
    59   28   98 1    
    60   29   30 am   BACKBONE|DICT|INTERRES
    61   29   99 1    
    62   30   31 2    
    63   30   32 1    
    64   32   33 1    
    65   32   34 1    
    66   32  100 1    
    67   33  101 1    
    68   33  102 1    
    69   33  103 1    
    70   34   35 am   BACKBONE|DICT|INTERRES
    71   34  104 1    
    72   35   36 2    
    73   37   38 2    
    74   37   39 am   BACKBONE|DICT|INTERRES
    75   39   40 1    
    76   39  105 1    
    77   40   41 1    
    78   40   42 1    
    79   40  106 1    
    80   41  107 1    
    81   41  108 1    
    82   41  109 1    
    83   42   43 2    
    84   42   44 am   BACKBONE|DICT|INTERRES
    85   44   45 1    
    86   44  110 1    
    87   45   46 1    
    88   45   47 1    
    89   45  111 1    
    90   46  112 1    
    91   46  113 1    
    92   46  114 1    
    93   47   48 2    
    94   47   49 am   BACKBONE|DICT|INTERRES
    95   49   50 1    
    96   49  115 1    
    97   50   51 1    
    98   50   52 1    
    99   50  116 1    
   100   51  117 1    
   101   51  118 1    
   102   51  119 1    
   103   52   53 2    
   104   52   54 am   BACKBONE|DICT|INTERRES
   105   54   55 1    
   106   54  120 1    
   107   55   56 1    
   108   55   57 1    
   109   55  121 1    
   110   56  122 1    
   111   56  123 1    
   112   56  124 1    
   113   57   58 2    
   114   57   59 am   BACKBONE|DICT|INTERRES
   115   59   60 1    
   116   59  125 1    
   117   60   61 1    
   118   60   62 1    
   119   60  126 1    
   120   61  127 1    
   121   61  128 1    
   122   61  129 1    
   123   62   63 2    
   124   62   64 am   BACKBONE|DICT|INTERRES
   125   64   65 1    
   126   64  130 1    
   127   65   66 1    
   128   65   69 1    
   129   65  131 1    
   130   66   67 am   BACKBONE|DICT|INTERRES
   131   66   68 2    
   132   67  132 1    
   133   67  133 1    
   134   69   70 1    
   135   69  134 1    
   136   69  135 1    
   137   70   71 1    
   138   71  136 1    
   139   71  137 1    
@<TRIPOS>SUBSTRUCTURE
     1 UNK         1 GROUP             0       ****    0 ROOT    
