@<TRIPOS>MOLECULE
3R136
137   139    1
SMALL
USER_CHARGES


@<TRIPOS>ATOM
      1 CA         26.9431   19.6176    1.4787 C.3       0 UNK        -0.1979 
      2 C          27.3836   19.0656    0.1257 C.2       0 UNK         0.4864 
      3 O          26.8898   18.0115   -0.2717 O.2       0 UNK        -0.5359 
      4 N          28.2971   19.7033   -0.6227 N.am      1 UNK        -0.4318 
      5 CA         28.9740   20.9888   -0.4130 C.3       1 UNK         0.0824 
      6 C6         29.9476   21.0191    0.8074 C.3       12 UNK        -0.0944 
      7 S7         31.5407   21.8111    0.4015 S.3       12 UNK        -0.2672 
      8 C8         31.2259   23.5726    0.7345 C.3       12 UNK         0.0333 
      9 C9         31.2464   23.9004    2.2207 C.ar      12 UNK        -0.0807 
     10 C10        32.4675   24.0952    2.8769 C.ar      12 UNK        -0.0894 
     11 C11        32.4947   24.4532    4.2280 C.ar      12 UNK        -0.0804 
     12 C12        31.2945   24.5771    4.9314 C.ar      12 UNK        -0.0824 
     13 C13        30.0691   24.3785    4.2908 C.ar      12 UNK        -0.0762 
     14 C14        30.0516   24.0551    2.9321 C.ar      12 UNK        -0.0782 
     15 C15        28.7761   24.4791    5.0866 C.3       12 UNK         0.0230 
     16 S16        28.4819   26.1654    5.7056 S.3       12 UNK        -0.2608 
     17 C17        27.4400   26.9106    4.4098 C.3       12 UNK        -0.0989 
     18 CA         28.1443   28.1072    3.7241 C.3       5 UNK         0.0716 
     19 N          29.0548   27.6991    2.6497 N.am      5 UNK        -0.4135 
     20 C          29.9664   28.5032    2.0829 C.2       4 UNK         0.5031 
     21 O          30.2078   29.6452    2.4711 O.2       4 UNK        -0.5229 
     22 CA         30.7203   27.9681    0.8558 C.3       4 UNK         0.0329 
     23 CB         32.0176   27.2721    1.2824 C.3       4 UNK        -0.2001 
     24 N          29.9009   27.0775    0.0284 N.am      4 UNK        -0.4303 
     25 C          28.8967   27.5212   -0.7414 C.2       3 UNK         0.5044 
     26 O          28.5644   28.7038   -0.8084 O.2       3 UNK        -0.5152 
     27 CA         28.1124   26.4762   -1.5523 C.3       3 UNK         0.0319 
     28 CB         28.8947   26.0753   -2.8130 C.3       3 UNK        -0.2001 
     29 N          27.7292   25.2674   -0.8150 N.am      3 UNK        -0.4354 
     30 C          27.0789   25.2169    0.3542 C.2       2 UNK         0.4964 
     31 O          26.8394   26.2064    1.0462 O.2       2 UNK        -0.5047 
     32 CA         26.6201   23.8344    0.8573 C.3       2 UNK         0.0288 
     33 CB         25.2216   23.4943    0.3074 C.3       2 UNK        -0.2113 
     34 N          27.5664   22.7250    0.6410 N.am      2 UNK        -0.4145 
     35 C          27.9824   22.1687   -0.5081 C.2       1 UNK         0.5006 
     36 O          27.6281   22.5578   -1.6217 O.2       1 UNK        -0.5103 
     37 C          27.1214   29.1377    3.2119 C.2       5 UNK         0.5055 
     38 O          26.9100   30.1508    3.8796 O.2       5 UNK        -0.5220 
     39 N          26.5548   28.9005    2.0186 N.am      6 UNK        -0.4450 
     40 CA         25.6674   29.8353    1.3153 C.3       6 UNK         0.0367 
     41 CB         25.1145   29.1649    0.0479 C.3       6 UNK        -0.1929 
     42 C          26.3455   31.1781    0.9775 C.2       6 UNK         0.5070 
     43 O          25.6831   32.2148    0.9971 O.2       6 UNK        -0.5237 
     44 N          27.6627   31.1421    0.7376 N.am      7 UNK        -0.4739 
     45 CA         28.5406   32.3020    0.5624 C.3       7 UNK         0.0276 
     46 CB         29.7087   31.8957   -0.3525 C.3       7 UNK        -0.1927 
     47 C          29.0367   32.9161    1.8931 C.2       7 UNK         0.5013 
     48 O          29.9988   33.6845    1.8692 O.2       7 UNK        -0.5193 
     49 N          28.3745   32.5932    3.0155 N.am      8 UNK        -0.4253 
     50 CA         28.6051   33.0899    4.3778 C.3       8 UNK         0.0242 
     51 CB         28.4231   34.6217    4.4604 C.3       8 UNK        -0.2000 
     52 C          29.9325   32.5960    4.9817 C.2       8 UNK         0.4948 
     53 O          30.7207   33.3987    5.4851 O.2       8 UNK        -0.5275 
     54 N          30.1287   31.2701    4.9367 N.am      9 UNK        -0.4246 
     55 CA         31.2740   30.5110    5.4592 C.3       9 UNK         0.0261 
     56 CB         31.3518   30.6060    6.9975 C.3       9 UNK        -0.1959 
     57 C          32.5940   30.8840    4.7595 C.2       9 UNK         0.5033 
     58 O          33.6115   31.1178    5.4164 O.2       9 UNK        -0.5390 
     59 N          32.5512   30.9117    3.4212 N.am      10 UNK        -0.4215 
     60 CA         33.6603   31.2888    2.5385 C.3       10 UNK         0.0240 
     61 CB         33.1323   31.4296    1.1026 C.3       10 UNK        -0.1982 
     62 C          34.8740   30.3405    2.5808 C.2       10 UNK         0.4970 
     63 O          35.9465   30.7283    2.1155 O.2       10 UNK        -0.4916 
     64 N          34.6984   29.1323    3.1321 N.am      11 UNK        -0.4279 
     65 CA         35.7719   28.1607    3.3790 C.3       11 UNK         0.1003 
     66 C          36.7509   28.5552    4.5269 C.2       11 UNK         0.5709 
     67 N          36.4383   29.5413    5.3623 N.am      11 UNK        -0.7358 
     68 O          37.8202   27.9624    4.6502 O.2       11 UNK        -0.4999 
     69 C69        35.2093   26.7227    3.5420 C.3       12 UNK        -0.0954 
     70 S70        34.1619   26.5021    5.0208 S.3       12 UNK        -0.2268 
     71 C71        33.8104   24.7179    4.9409 C.3       12 UNK         0.0203 
     72 H72        26.2206   20.4219    1.3492 H         1 UNK         0.0888 
     73 H73        26.4557   18.8343    2.0591 H         1 UNK         0.0888 
     74 H74        27.7815   19.9734    2.0720 H         1 UNK         0.0888 
     75 H75        28.5240   19.2769   -1.5105 H         1 UNK         0.3017 
     76 H76        29.5881   21.0798   -1.3110 H         1 UNK         0.0873 
     77 H77        29.5304   21.4674    1.7079 H         1 UNK         0.0745 
     78 H78        30.1981   19.9972    1.0970 H         1 UNK         0.0745 
     79 H79        31.9967   24.1573    0.2301 H         1 UNK         0.0705 
     80 H80        30.2814   23.8714    0.2810 H         1 UNK         0.0705 
     81 H81        33.3943   23.9937    2.3286 H         1 UNK         0.1334 
     82 H82        31.3124   24.8414    5.9802 H         1 UNK         0.1417 
     83 H83        29.1058   23.9197    2.4352 H         1 UNK         0.1562 
     84 H84        28.8468   23.8080    5.9439 H         1 UNK         0.0748 
     85 H85        27.9195   24.1319    4.5073 H         1 UNK         0.0748 
     86 H86        26.5245   27.2305    4.9127 H         1 UNK         0.0940 
     87 H87        27.1258   26.1629    3.6811 H         1 UNK         0.0940 
     88 H88        28.7408   28.6245    4.4785 H         1 UNK         0.0703 
     89 H89        28.8940   26.7898    2.2448 H         1 UNK         0.3081 
     90 H90        30.9976   28.8228    0.2361 H         1 UNK         0.0719 
     91 H91        32.7430   28.0069    1.6262 H         1 UNK         0.0809 
     92 H92        32.4807   26.7251    0.4614 H         1 UNK         0.0809 
     93 H93        31.8501   26.5843    2.1083 H         1 UNK         0.0809 
     94 H94        30.1239   26.0949    0.0261 H         1 UNK         0.2990 
     95 H95        27.1842   26.9540   -1.8720 H         1 UNK         0.0690 
     96 H96        28.2954   25.4395   -3.4652 H         1 UNK         0.0788 
     97 H97        29.8093   25.5340   -2.5676 H         1 UNK         0.0788 
     98 H98        29.1799   26.9540   -3.3934 H         1 UNK         0.0788 
     99 H99        27.8276   24.3844   -1.3102 H         1 UNK         0.2993 
    100 H100       26.5207   23.9283    1.9402 H         1 UNK         0.0949 
    101 H101       25.2219   23.3884   -0.7779 H         1 UNK         0.0767 
    102 H102       24.8420   22.5662    0.7344 H         1 UNK         0.0767 
    103 H103       24.5053   24.2795    0.5542 H         1 UNK         0.0767 
    104 H104       27.9222   22.3142    1.4914 H         1 UNK         0.3013 
    105 H105       26.7477   28.0146    1.5558 H         1 UNK         0.3121 
    106 H106       24.8281   30.0516    1.9797 H         1 UNK         0.0774 
    107 H107       25.9064   28.9252   -0.6615 H         1 UNK         0.0815 
    108 H108       24.4082   29.8209   -0.4626 H         1 UNK         0.0815 
    109 H109       24.5871   28.2407    0.2849 H         1 UNK         0.0815 
    110 H110       28.1070   30.2336    0.6733 H         1 UNK         0.2987 
    111 H111       27.9791   33.0876    0.0523 H         1 UNK         0.0949 
    112 H112       30.3242   31.1249    0.1088 H         1 UNK         0.0806 
    113 H113       29.3488   31.5071   -1.3053 H         1 UNK         0.0806 
    114 H114       30.3553   32.7454   -0.5750 H         1 UNK         0.0806 
    115 H115       27.6352   31.9039    2.9377 H         1 UNK         0.3010 
    116 H116       27.8187   32.6450    4.9899 H         1 UNK         0.0829 
    117 H117       29.2034   35.1564    3.9182 H         1 UNK         0.0813 
    118 H118       27.4597   34.9296    4.0541 H         1 UNK         0.0813 
    119 H119       28.4610   34.9614    5.4961 H         1 UNK         0.0813 
    120 H120       29.4543   30.7263    4.4144 H         1 UNK         0.3038 
    121 H121       31.0866   29.4654    5.2094 H         1 UNK         0.0769 
    122 H122       32.1309   29.9502    7.3883 H         1 UNK         0.0811 
    123 H123       31.5835   31.6179    7.3313 H         1 UNK         0.0811 
    124 H124       30.4127   30.3050    7.4616 H         1 UNK         0.0811 
    125 H125       31.6713   30.6552    2.9755 H         1 UNK         0.3204 
    126 H126       34.0152   32.2682    2.8656 H         1 UNK         0.0748 
    127 H127       32.3512   32.1877    1.0462 H         1 UNK         0.0771 
    128 H128       33.9257   31.7359    0.4194 H         1 UNK         0.0771 
    129 H129       32.7237   30.4910    0.7286 H         1 UNK         0.0771 
    130 H130       33.7984   28.9020    3.5233 H         1 UNK         0.2980 
    131 H131       36.3863   28.1449    2.4768 H         1 UNK         0.0545 
    132 H132       35.5545   30.0280    5.2829 H         1 UNK         0.3459 
    133 H133       37.0834   29.7880    6.0955 H         1 UNK         0.3459 
    134 H134       34.6246   26.4508    2.6622 H         1 UNK         0.0616 
    135 H135       36.0303   26.0049    3.5869 H         1 UNK         0.0616 
    136 H136       34.6311   24.1890    4.4541 H         1 UNK         0.0634 
    137 H137       33.7585   24.3266    5.9580 H         1 UNK         0.0634 
@<TRIPOS>BOND
     1    1    2 1    
     2    1   72 1    
     3    1   73 1    
     4    1   74 1    
     5    2    3 2    
     6    2    4 am   BACKBONE|DICT|INTERRES
     7    4    5 1    
     8    4   75 1    
     9    5    6 1    
    10    5   35 1    
    11    5   76 1    
    12    6    7 1    
    13    6   77 1    
    14    6   78 1    
    15    7    8 1    
    16    8    9 1    
    17    8   79 1    
    18    8   80 1    
    19    9   10 ar   
    20    9   14 ar   
    21   10   11 ar   
    22   10   81 1    
    23   11   12 ar   
    24   11   71 1    
    25   12   13 ar   
    26   12   82 1    
    27   13   14 ar   
    28   13   15 1    
    29   14   83 1    
    30   15   16 1    
    31   15   84 1    
    32   15   85 1    
    33   16   17 1    
    34   17   18 1    
    35   17   86 1    
    36   17   87 1    
    37   18   19 1    
    38   18   37 1    
    39   18   88 1    
    40   19   20 am   BACKBONE|DICT|INTERRES
    41   19   89 1    
    42   20   21 2    
    43   20   22 1    
    44   22   23 1    
    45   22   24 1    
    46   22   90 1    
    47   23   91 1    
    48   23   92 1    
    49   23   93 1    
    50   24   25 am   BACKBONE|DICT|INTERRES
    51   24   94 1    
    52   25   26 2    
    53   25   27 1    
    54   27   28 1    
    55   27   29 1    
    56   27   95 1    
    57   28   96 1    
    58   28   97 1    
    59   28   98 1    
    60   29   30 am   BACKBONE|DICT|INTERRES
    61   29   99 1    
    62   30   31 2    
    63   30   32 1    
    64   32   33 1    
    65   32   34 1    
    66   32  100 1    
    67   33  101 1    
    68   33  102 1    
    69   33  103 1    
    70   34   35 am   BACKBONE|DICT|INTERRES
    71   34  104 1    
    72   35   36 2    
    73   37   38 2    
    74   37   39 am   BACKBONE|DICT|INTERRES
    75   39   40 1    
    76   39  105 1    
    77   40   41 1    
    78   40   42 1    
    79   40  106 1    
    80   41  107 1    
    81   41  108 1    
    82   41  109 1    
    83   42   43 2    
    84   42   44 am   BACKBONE|DICT|INTERRES
    85   44   45 1    
    86   44  110 1    
    87   45   46 1    
    88   45   47 1    
    89   45  111 1    
    90   46  112 1    
    91   46  113 1    
    92   46  114 1    
    93   47   48 2    
    94   47   49 am   BACKBONE|DICT|INTERRES
    95   49   50 1    
    96   49  115 1    
    97   50   51 1    
    98   50   52 1    
    99   50  116 1    
   100   51  117 1    
   101   51  118 1    
   102   51  119 1    
   103   52   53 2    
   104   52   54 am   BACKBONE|DICT|INTERRES
   105   54   55 1    
   106   54  120 1    
   107   55   56 1    
   108   55   57 1    
   109   55  121 1    
   110   56  122 1    
   111   56  123 1    
   112   56  124 1    
   113   57   58 2    
   114   57   59 am   BACKBONE|DICT|INTERRES
   115   59   60 1    
   116   59  125 1    
   117   60   61 1    
   118   60   62 1    
   119   60  126 1    
   120   61  127 1    
   121   61  128 1    
   122   61  129 1    
   123   62   63 2    
   124   62   64 am   BACKBONE|DICT|INTERRES
   125   64   65 1    
   126   64  130 1    
   127   65   66 1    
   128   65   69 1    
   129   65  131 1    
   130   66   67 am   BACKBONE|DICT|INTERRES
   131   66   68 2    
   132   67  132 1    
   133   67  133 1    
   134   69   70 1    
   135   69  134 1    
   136   69  135 1    
   137   70   71 1    
   138   71  136 1    
   139   71  137 1    
@<TRIPOS>SUBSTRUCTURE
     1 UNK         1 GROUP             0       ****    0 ROOT    
