@<TRIPOS>MOLECULE
3R136
137   139    1
SMALL
USER_CHARGES


@<TRIPOS>ATOM
      1 CA         34.4413   27.0642   -2.4983 C.3       0 UNK        -0.1979 
      2 C          33.0084   27.0534   -1.9896 C.2       0 UNK         0.4864 
      3 O          32.5922   27.9993   -1.3188 O.2       0 UNK        -0.5359 
      4 N          32.2510   25.9926   -2.2925 N.am      1 UNK        -0.4318 
      5 CA         30.8434   25.8594   -1.9150 C.3       1 UNK         0.0824 
      6 C6         30.4122   24.3818   -1.7538 C.3       12 UNK        -0.0944 
      7 S7         31.1738   23.6265   -0.2820 S.3       12 UNK        -0.2672 
      8 C8         29.9636   24.1524    0.9707 C.3       12 UNK         0.0333 
      9 C9         30.4373   23.8768    2.3885 C.ar      12 UNK        -0.0807 
     10 C10        31.5612   24.5365    2.8964 C.ar      12 UNK        -0.0894 
     11 C11        31.9549   24.3440    4.2236 C.ar      12 UNK        -0.0804 
     12 C12        31.1915   23.5211    5.0566 C.ar      12 UNK        -0.0824 
     13 C13        30.0553   22.8713    4.5663 C.ar      12 UNK        -0.0762 
     14 C14        29.7113   23.0167    3.2173 C.ar      12 UNK        -0.0782 
     15 C15        29.1863   22.0451    5.5076 C.3       12 UNK         0.0230 
     16 S16        27.4126   22.4674    5.3933 S.3       12 UNK        -0.2608 
     17 C17        27.3630   24.2362    5.8730 C.3       12 UNK        -0.0989 
     18 CA         27.5569   25.2313    4.6882 C.3       5 UNK         0.0716 
     19 N          26.8021   24.8749    3.4820 N.am      5 UNK        -0.4135 
     20 C          25.4733   24.8829    3.3173 C.2       4 UNK         0.5031 
     21 O          24.6594   25.1970    4.1881 O.2       4 UNK        -0.5229 
     22 CA         24.9868   24.4910    1.9095 C.3       4 UNK         0.0329 
     23 CB         23.6591   23.7140    1.9697 C.3       4 UNK        -0.2001 
     24 N          24.8325   25.6217    0.9847 N.am      4 UNK        -0.4303 
     25 C          25.7240   26.5852    0.7114 C.2       3 UNK         0.5044 
     26 O          26.7940   26.7487    1.3045 O.2       3 UNK        -0.5152 
     27 CA         25.3616   27.5359   -0.4318 C.3       3 UNK         0.0319 
     28 CB         24.7543   28.8430    0.1044 C.3       3 UNK        -0.2001 
     29 N          26.5810   27.8093   -1.1898 N.am      3 UNK        -0.4354 
     30 C          26.6335   28.0324   -2.5117 C.2       2 UNK         0.4964 
     31 O          25.6317   28.1288   -3.2214 O.2       2 UNK        -0.5047 
     32 CA         28.0170   28.1430   -3.1770 C.3       2 UNK         0.0288 
     33 CB         28.4367   29.6144   -3.3363 C.3       2 UNK        -0.2113 
     34 N          29.0418   27.4180   -2.4258 N.am      2 UNK        -0.4145 
     35 C          29.9497   26.5816   -2.9379 C.2       1 UNK         0.5006 
     36 O          30.0805   26.3446   -4.1415 O.2       1 UNK        -0.5103 
     37 C          27.3569   26.7108    5.0906 C.2       5 UNK         0.5055 
     38 O          27.4233   27.0316    6.2793 O.2       5 UNK        -0.5220 
     39 N          27.1057   27.5808    4.0998 N.am      6 UNK        -0.4450 
     40 CA         26.7741   28.9931    4.2969 C.3       6 UNK         0.0367 
     41 CB         25.2589   29.1827    4.1105 C.3       6 UNK        -0.1929 
     42 C          27.5592   29.9400    3.3764 C.2       6 UNK         0.5070 
     43 O          27.7285   31.1032    3.7443 O.2       6 UNK        -0.5237 
     44 N          28.0259   29.4663    2.2138 N.am      7 UNK        -0.4739 
     45 CA         28.7921   30.2563    1.2477 C.3       7 UNK         0.0276 
     46 CB         27.8282   31.1135    0.3994 C.3       7 UNK        -0.1927 
     47 C          29.5981   29.3015    0.3554 C.2       7 UNK         0.5013 
     48 O          29.2071   28.1395    0.2340 O.2       7 UNK        -0.5193 
     49 N          30.6616   29.7450   -0.3268 N.am      8 UNK        -0.4253 
     50 CA         31.2820   31.0720   -0.2888 C.3       8 UNK         0.0242 
     51 CB         31.7141   31.4522   -1.7143 C.3       8 UNK        -0.2000 
     52 C          32.4902   31.1076    0.6598 C.2       8 UNK         0.4948 
     53 O          32.8555   32.1925    1.1139 O.2       8 UNK        -0.5275 
     54 N          33.0836   29.9387    0.9453 N.am      9 UNK        -0.4246 
     55 CA         34.1785   29.7527    1.8985 C.3       9 UNK         0.0261 
     56 CB         34.6067   28.2752    1.8893 C.3       9 UNK        -0.1959 
     57 C          33.7782   30.1848    3.3195 C.2       9 UNK         0.5033 
     58 O          32.7360   29.7524    3.8173 O.2       9 UNK        -0.5390 
     59 N          34.6229   31.0010    3.9613 N.am      10 UNK        -0.4215 
     60 CA         34.4198   31.5355    5.3122 C.3       10 UNK         0.0240 
     61 CB         35.1790   32.8705    5.4388 C.3       10 UNK        -0.1982 
     62 C          34.8139   30.5204    6.4043 C.2       10 UNK         0.4970 
     63 O          35.5936   30.8484    7.3006 O.2       10 UNK        -0.4916 
     64 N          34.2837   29.2978    6.2973 N.am      11 UNK        -0.4279 
     65 CA         34.5291   28.1821    7.2218 C.3       11 UNK         0.1003 
     66 C          33.7071   28.2293    8.5437 C.2       11 UNK         0.5709 
     67 N          32.7587   29.1446    8.7076 N.am      11 UNK        -0.7358 
     68 O          33.9497   27.4317    9.4466 O.2       11 UNK        -0.4999 
     69 C69        34.4216   26.8164    6.4956 C.3       12 UNK        -0.0954 
     70 S70        32.7934   26.4971    5.7370 S.3       12 UNK        -0.2268 
     71 C71        33.2038   25.0194    4.7648 C.3       12 UNK         0.0203 
     72 H72        34.6767   26.1685   -3.0728 H         1 UNK         0.0888 
     73 H73        34.6040   27.9314   -3.1375 H         1 UNK         0.0888 
     74 H74        35.1350   27.1230   -1.6602 H         1 UNK         0.0888 
     75 H75        32.6257   25.2514   -2.8667 H         1 UNK         0.3017 
     76 H76        30.7072   26.3480   -0.9487 H         1 UNK         0.0873 
     77 H77        30.6889   23.7980   -2.6337 H         1 UNK         0.0745 
     78 H78        29.3272   24.2939   -1.6629 H         1 UNK         0.0745 
     79 H79        29.7715   25.2224    0.8763 H         1 UNK         0.0705 
     80 H80        29.0139   23.6527    0.7730 H         1 UNK         0.0705 
     81 H81        32.1273   25.1997    2.2561 H         1 UNK         0.1334 
     82 H82        31.4785   23.4011    6.0926 H         1 UNK         0.1417 
     83 H83        28.8366   22.5086    2.8346 H         1 UNK         0.1562 
     84 H84        29.5073   22.1665    6.5434 H         1 UNK         0.0748 
     85 H85        29.3132   20.9890    5.2662 H         1 UNK         0.0748 
     86 H86        28.1142   24.4144    6.6446 H         1 UNK         0.0940 
     87 H87        26.3967   24.4127    6.3492 H         1 UNK         0.0940 
     88 H88        28.6051   25.1893    4.3979 H         1 UNK         0.0703 
     89 H89        27.3673   24.6769    2.6700 H         1 UNK         0.3081 
     90 H90        25.7327   23.8223    1.4749 H         1 UNK         0.0719 
     91 H91        22.8388   24.3420    2.3199 H         1 UNK         0.0809 
     92 H92        23.3846   23.3163    0.9925 H         1 UNK         0.0809 
     93 H93        23.7338   22.8663    2.6525 H         1 UNK         0.0809 
     94 H94        23.9741   25.6232    0.4529 H         1 UNK         0.2990 
     95 H95        24.6349   27.0418   -1.0807 H         1 UNK         0.0690 
     96 H96        24.5403   29.5427   -0.7036 H         1 UNK         0.0788 
     97 H97        25.4202   29.3389    0.8099 H         1 UNK         0.0788 
     98 H98        23.8153   28.6511    0.6248 H         1 UNK         0.0788 
     99 H99        27.4311   27.7306   -0.6399 H         1 UNK         0.2993 
    100 H100       27.9185   27.7047   -4.1728 H         1 UNK         0.0949 
    101 H101       27.7023   30.1681   -3.9228 H         1 UNK         0.0767 
    102 H102       28.5304   30.1165   -2.3740 H         1 UNK         0.0767 
    103 H103       29.3938   29.6985   -3.8515 H         1 UNK         0.0767 
    104 H104       29.0534   27.5716   -1.4186 H         1 UNK         0.3013 
    105 H105       27.0585   27.2277    3.1473 H         1 UNK         0.3121 
    106 H106       27.0259   29.2944    5.3159 H         1 UNK         0.0774 
    107 H107       24.6982   28.6202    4.8572 H         1 UNK         0.0815 
    108 H108       24.9766   30.2313    4.2146 H         1 UNK         0.0815 
    109 H109       24.9283   28.8481    3.1276 H         1 UNK         0.0815 
    110 H110       27.8899   28.4963    1.9464 H         1 UNK         0.2987 
    111 H111       29.4843   30.8948    1.7999 H         1 UNK         0.0949 
    112 H112       28.3634   31.7596   -0.2954 H         1 UNK         0.0806 
    113 H113       27.1614   30.4947   -0.1996 H         1 UNK         0.0806 
    114 H114       27.2118   31.7608    1.0229 H         1 UNK         0.0806 
    115 H115       31.1927   29.0616   -0.8635 H         1 UNK         0.3010 
    116 H116       30.5806   31.8315    0.0536 H         1 UNK         0.0829 
    117 H117       30.8596   31.4897   -2.3900 H         1 UNK         0.0813 
    118 H118       32.1837   32.4368   -1.7318 H         1 UNK         0.0813 
    119 H119       32.4326   30.7401   -2.1227 H         1 UNK         0.0813 
    120 H120       32.7476   29.1076    0.4732 H         1 UNK         0.3038 
    121 H121       35.0188   30.3621    1.5598 H         1 UNK         0.0769 
    122 H122       33.7919   27.6184    2.1984 H         1 UNK         0.0811 
    123 H123       35.4391   28.1042    2.5732 H         1 UNK         0.0811 
    124 H124       34.9315   27.9613    0.8971 H         1 UNK         0.0811 
    125 H125       35.4747   31.2799    3.4952 H         1 UNK         0.3204 
    126 H126       33.3573   31.7493    5.4480 H         1 UNK         0.0748 
    127 H127       35.0049   33.3298    6.4130 H         1 UNK         0.0771 
    128 H128       36.2558   32.7361    5.3284 H         1 UNK         0.0771 
    129 H129       34.8507   33.5861    4.6846 H         1 UNK         0.0771 
    130 H130       33.6301   29.1205    5.5410 H         1 UNK         0.2980 
    131 H131       35.5683   28.2640    7.5462 H         1 UNK         0.0545 
    132 H132       32.5491   29.7996    7.9723 H         1 UNK         0.3459 
    133 H133       32.2398   29.1686    9.5710 H         1 UNK         0.3459 
    134 H134       35.1765   26.7705    5.7089 H         1 UNK         0.0616 
    135 H135       34.6561   25.9976    7.1784 H         1 UNK         0.0616 
    136 H136       33.8737   25.3001    3.9504 H         1 UNK         0.0634 
    137 H137       33.7539   24.3140    5.3897 H         1 UNK         0.0634 
@<TRIPOS>BOND
     1    1    2 1    
     2    1   72 1    
     3    1   73 1    
     4    1   74 1    
     5    2    3 2    
     6    2    4 am   BACKBONE|DICT|INTERRES
     7    4    5 1    
     8    4   75 1    
     9    5    6 1    
    10    5   35 1    
    11    5   76 1    
    12    6    7 1    
    13    6   77 1    
    14    6   78 1    
    15    7    8 1    
    16    8    9 1    
    17    8   79 1    
    18    8   80 1    
    19    9   10 ar   
    20    9   14 ar   
    21   10   11 ar   
    22   10   81 1    
    23   11   12 ar   
    24   11   71 1    
    25   12   13 ar   
    26   12   82 1    
    27   13   14 ar   
    28   13   15 1    
    29   14   83 1    
    30   15   16 1    
    31   15   84 1    
    32   15   85 1    
    33   16   17 1    
    34   17   18 1    
    35   17   86 1    
    36   17   87 1    
    37   18   19 1    
    38   18   37 1    
    39   18   88 1    
    40   19   20 am   BACKBONE|DICT|INTERRES
    41   19   89 1    
    42   20   21 2    
    43   20   22 1    
    44   22   23 1    
    45   22   24 1    
    46   22   90 1    
    47   23   91 1    
    48   23   92 1    
    49   23   93 1    
    50   24   25 am   BACKBONE|DICT|INTERRES
    51   24   94 1    
    52   25   26 2    
    53   25   27 1    
    54   27   28 1    
    55   27   29 1    
    56   27   95 1    
    57   28   96 1    
    58   28   97 1    
    59   28   98 1    
    60   29   30 am   BACKBONE|DICT|INTERRES
    61   29   99 1    
    62   30   31 2    
    63   30   32 1    
    64   32   33 1    
    65   32   34 1    
    66   32  100 1    
    67   33  101 1    
    68   33  102 1    
    69   33  103 1    
    70   34   35 am   BACKBONE|DICT|INTERRES
    71   34  104 1    
    72   35   36 2    
    73   37   38 2    
    74   37   39 am   BACKBONE|DICT|INTERRES
    75   39   40 1    
    76   39  105 1    
    77   40   41 1    
    78   40   42 1    
    79   40  106 1    
    80   41  107 1    
    81   41  108 1    
    82   41  109 1    
    83   42   43 2    
    84   42   44 am   BACKBONE|DICT|INTERRES
    85   44   45 1    
    86   44  110 1    
    87   45   46 1    
    88   45   47 1    
    89   45  111 1    
    90   46  112 1    
    91   46  113 1    
    92   46  114 1    
    93   47   48 2    
    94   47   49 am   BACKBONE|DICT|INTERRES
    95   49   50 1    
    96   49  115 1    
    97   50   51 1    
    98   50   52 1    
    99   50  116 1    
   100   51  117 1    
   101   51  118 1    
   102   51  119 1    
   103   52   53 2    
   104   52   54 am   BACKBONE|DICT|INTERRES
   105   54   55 1    
   106   54  120 1    
   107   55   56 1    
   108   55   57 1    
   109   55  121 1    
   110   56  122 1    
   111   56  123 1    
   112   56  124 1    
   113   57   58 2    
   114   57   59 am   BACKBONE|DICT|INTERRES
   115   59   60 1    
   116   59  125 1    
   117   60   61 1    
   118   60   62 1    
   119   60  126 1    
   120   61  127 1    
   121   61  128 1    
   122   61  129 1    
   123   62   63 2    
   124   62   64 am   BACKBONE|DICT|INTERRES
   125   64   65 1    
   126   64  130 1    
   127   65   66 1    
   128   65   69 1    
   129   65  131 1    
   130   66   67 am   BACKBONE|DICT|INTERRES
   131   66   68 2    
   132   67  132 1    
   133   67  133 1    
   134   69   70 1    
   135   69  134 1    
   136   69  135 1    
   137   70   71 1    
   138   71  136 1    
   139   71  137 1    
@<TRIPOS>SUBSTRUCTURE
     1 UNK         1 GROUP             0       ****    0 ROOT    
