@<TRIPOS>MOLECULE
3R136
137   139    1
SMALL
USER_CHARGES


@<TRIPOS>ATOM
      1 CA         26.1653   21.9829    4.2031 C.3       0 UNK        -0.1979 
      2 C          27.3122   22.2871    3.2511 C.2       0 UNK         0.4864 
      3 O          27.6264   23.4565    3.0315 O.2       0 UNK        -0.5359 
      4 N          27.9324   21.2438    2.6813 N.am      1 UNK        -0.4318 
      5 CA         29.0478   21.2801    1.7248 C.3       1 UNK         0.0824 
      6 C6         30.2909   22.0459    2.2522 C.3       12 UNK        -0.0944 
      7 S7         31.8381   21.5704    1.4085 S.3       12 UNK        -0.2672 
      8 C8         33.0995   22.0701    2.6354 C.3       12 UNK         0.0333 
      9 C9         32.9509   23.5107    3.1206 C.ar      12 UNK        -0.0807 
     10 C10        33.1126   23.8103    4.4772 C.ar      12 UNK        -0.0894 
     11 C11        32.9419   25.1180    4.9440 C.ar      12 UNK        -0.0804 
     12 C12        32.5725   26.1259    4.0473 C.ar      12 UNK        -0.0824 
     13 C13        32.4397   25.8458    2.6855 C.ar      12 UNK        -0.0762 
     14 C14        32.6531   24.5439    2.2267 C.ar      12 UNK        -0.0782 
     15 C15        32.0795   26.9497    1.7049 C.3       12 UNK         0.0230 
     16 S16        30.5592   26.5646    0.7799 S.3       12 UNK        -0.2608 
     17 C17        29.2723   26.7536    2.0635 C.3       12 UNK        -0.0989 
     18 CA         28.4214   28.0249    1.8259 C.3       5 UNK         0.0716 
     19 N          27.8281   28.0471    0.4852 N.am      5 UNK        -0.4135 
     20 C          27.5533   29.1518   -0.2205 C.2       4 UNK         0.5031 
     21 O          27.7144   30.2915    0.2134 O.2       4 UNK        -0.5229 
     22 CA         26.9658   28.9598   -1.6307 C.3       4 UNK         0.0329 
     23 CB         28.0830   29.0263   -2.6841 C.3       4 UNK        -0.2001 
     24 N          26.2268   27.7039   -1.7897 N.am      4 UNK        -0.4303 
     25 C          25.0912   27.3983   -1.1454 C.2       3 UNK         0.5044 
     26 O          24.5099   28.1703   -0.3829 O.2       3 UNK        -0.5152 
     27 CA         24.5420   25.9737   -1.3457 C.3       3 UNK         0.0319 
     28 CB         23.5687   25.9343   -2.5345 C.3       3 UNK        -0.2001 
     29 N          25.5822   24.9513   -1.5290 N.am      3 UNK        -0.4354 
     30 C          26.5331   24.6604   -0.6300 C.2       2 UNK         0.4964 
     31 O          26.6706   25.2603    0.4373 O.2       2 UNK        -0.5047 
     32 CA         27.5236   23.5552   -1.0070 C.3       2 UNK         0.0288 
     33 CB         28.6665   24.1190   -1.8723 C.3       2 UNK        -0.2113 
     34 N          28.0614   22.9632    0.2158 N.am      2 UNK        -0.4145 
     35 C          28.6021   21.7440    0.3198 C.2       1 UNK         0.5006 
     36 O          28.7262   20.9735   -0.6347 O.2       1 UNK        -0.5103 
     37 C          27.3790   28.2635    2.9410 C.2       5 UNK         0.5055 
     38 O          27.7328   28.2014    4.1195 O.2       5 UNK        -0.5220 
     39 N          26.1278   28.5802    2.5686 N.am      6 UNK        -0.4450 
     40 CA         25.1429   29.2114    3.4492 C.3       6 UNK         0.0367 
     41 CB         23.7482   29.1062    2.8129 C.3       6 UNK        -0.1929 
     42 C          25.4965   30.6844    3.7416 C.2       6 UNK         0.5070 
     43 O          25.1199   31.1941    4.7975 O.2       6 UNK        -0.5237 
     44 N          26.2224   31.3344    2.8190 N.am      7 UNK        -0.4739 
     45 CA         26.8569   32.6376    3.0194 C.3       7 UNK         0.0276 
     46 CB         26.9404   33.3599    1.6632 C.3       7 UNK        -0.1927 
     47 C          28.2577   32.4524    3.6297 C.2       7 UNK         0.5013 
     48 O          28.7562   31.3267    3.7119 O.2       7 UNK        -0.5193 
     49 N          28.8908   33.5638    4.0272 N.am      8 UNK        -0.4253 
     50 CA         30.2138   33.6163    4.6645 C.3       8 UNK         0.0242 
     51 CB         30.3611   34.9710    5.3841 C.3       8 UNK        -0.2000 
     52 C          31.3919   33.3234    3.7052 C.2       8 UNK         0.4948 
     53 O          32.3513   34.0961    3.6523 O.2       8 UNK        -0.5275 
     54 N          31.3067   32.2114    2.9676 N.am      9 UNK        -0.4246 
     55 CA         32.3798   31.6556    2.1453 C.3       9 UNK         0.0261 
     56 CB         31.7634   30.7513    1.0654 C.3       9 UNK        -0.1959 
     57 C          33.3700   30.8727    3.0245 C.2       9 UNK         0.5033 
     58 O          32.9579   30.2603    4.0136 O.2       9 UNK        -0.5390 
     59 N          34.6545   30.9045    2.6487 N.am      10 UNK        -0.4215 
     60 CA         35.7453   30.2391    3.3656 C.3       10 UNK         0.0240 
     61 CB         37.0900   30.7728    2.8440 C.3       10 UNK        -0.1982 
     62 C          35.6858   28.7086    3.2284 C.2       10 UNK         0.4970 
     63 O          35.3302   28.2048    2.1607 O.2       10 UNK        -0.4916 
     64 N          36.0766   28.0108    4.3007 N.am      11 UNK        -0.4279 
     65 CA         36.1083   26.5402    4.3834 C.3       11 UNK         0.1003 
     66 C          37.3585   25.8822    3.7302 C.2       11 UNK         0.5709 
     67 N          38.3415   26.6390    3.2559 N.am      11 UNK        -0.7358 
     68 O          37.4364   24.6590    3.6443 O.2       11 UNK        -0.4999 
     69 C69        35.8994   26.0357    5.8404 C.3       12 UNK        -0.0954 
     70 S70        34.4251   26.7471    6.6549 S.3       12 UNK        -0.2268 
     71 C71        33.1720   25.4427    6.4144 C.3       12 UNK         0.0203 
     72 H72        25.9905   20.9120    4.3044 H         1 UNK         0.0888 
     73 H73        26.3830   22.3863    5.1916 H         1 UNK         0.0888 
     74 H74        25.2468   22.4445    3.8414 H         1 UNK         0.0888 
     75 H75        27.5977   20.3139    2.8943 H         1 UNK         0.3017 
     76 H76        29.3400   20.2338    1.6189 H         1 UNK         0.0873 
     77 H77        30.1550   23.1260    2.1697 H         1 UNK         0.0745 
     78 H78        30.4200   21.8418    3.3164 H         1 UNK         0.0745 
     79 H79        33.0479   21.3780    3.4774 H         1 UNK         0.0705 
     80 H80        34.0892   21.9477    2.1938 H         1 UNK         0.0705 
     81 H81        33.3747   23.0237    5.1716 H         1 UNK         0.1334 
     82 H82        32.4304   27.1367    4.4066 H         1 UNK         0.1417 
     83 H83        32.5470   24.3300    1.1719 H         1 UNK         0.1562 
     84 H84        32.9023   27.0786    1.0004 H         1 UNK         0.0748 
     85 H85        31.9627   27.9036    2.2200 H         1 UNK         0.0748 
     86 H86        28.6455   25.8607    2.0606 H         1 UNK         0.0940 
     87 H87        29.7431   26.7828    3.0477 H         1 UNK         0.0940 
     88 H88        29.1030   28.8745    1.8977 H         1 UNK         0.0703 
     89 H89        27.6018   27.1383    0.0995 H         1 UNK         0.3081 
     90 H90        26.2719   29.7834   -1.8117 H         1 UNK         0.0719 
     91 H91        28.8022   28.2149   -2.5625 H         1 UNK         0.0809 
     92 H92        27.6803   28.9720   -3.6956 H         1 UNK         0.0809 
     93 H93        28.6351   29.9643   -2.6071 H         1 UNK         0.0809 
     94 H94        26.6309   27.0086   -2.4000 H         1 UNK         0.2990 
     95 H95        23.9858   25.7139   -0.4423 H         1 UNK         0.0690 
     96 H96        23.0915   24.9584   -2.6253 H         1 UNK         0.0788 
     97 H97        24.0718   26.1526   -3.4774 H         1 UNK         0.0788 
     98 H98        22.7731   26.6708   -2.4116 H         1 UNK         0.0788 
     99 H99        25.5480   24.4237   -2.3901 H         1 UNK         0.2993 
    100 H100       26.9853   22.7858   -1.5649 H         1 UNK         0.0949 
    101 H101       29.3677   23.3373   -2.1646 H         1 UNK         0.0767 
    102 H102       28.2836   24.5670   -2.7899 H         1 UNK         0.0767 
    103 H103       29.2289   24.8879   -1.3418 H         1 UNK         0.0767 
    104 H104       27.9191   23.5089    1.0648 H         1 UNK         0.3013 
    105 H105       25.8979   28.5530    1.5840 H         1 UNK         0.3121 
    106 H106       25.1300   28.6734    4.3995 H         1 UNK         0.0774 
    107 H107       23.6948   29.6442    1.8656 H         1 UNK         0.0815 
    108 H108       22.9876   29.5282    3.4710 H         1 UNK         0.0815 
    109 H109       23.4748   28.0680    2.6236 H         1 UNK         0.0815 
    110 H110       26.5459   30.8199    2.0085 H         1 UNK         0.2987 
    111 H111       26.2559   33.2390    3.7052 H         1 UNK         0.0949 
    112 H112       27.6068   32.8449    0.9703 H         1 UNK         0.0806 
    113 H113       25.9603   33.4324    1.1915 H         1 UNK         0.0806 
    114 H114       27.3163   34.3771    1.7781 H         1 UNK         0.0806 
    115 H115       28.4321   34.4527    3.8879 H         1 UNK         0.3010 
    116 H116       30.2453   32.8375    5.4298 H         1 UNK         0.0829 
    117 H117       29.5618   35.1258    6.1092 H         1 UNK         0.0813 
    118 H118       31.3030   35.0243    5.9319 H         1 UNK         0.0813 
    119 H119       30.3448   35.8047    4.6811 H         1 UNK         0.0813 
    120 H120       30.4887   31.6246    3.1174 H         1 UNK         0.3038 
    121 H121       32.9106   32.4736    1.6532 H         1 UNK         0.0769 
    122 H122       31.1580   29.9592    1.5035 H         1 UNK         0.0811 
    123 H123       32.5352   30.2771    0.4576 H         1 UNK         0.0811 
    124 H124       31.1221   31.3205    0.3920 H         1 UNK         0.0811 
    125 H125       34.9035   31.3917    1.8000 H         1 UNK         0.3204 
    126 H126       35.6571   30.4995    4.4229 H         1 UNK         0.0748 
    127 H127       37.9254   30.3303    3.3882 H         1 UNK         0.0771 
    128 H128       37.2323   30.5448    1.7866 H         1 UNK         0.0771 
    129 H129       37.1636   31.8536    2.9677 H         1 UNK         0.0771 
    130 H130       36.3639   28.5020    5.1341 H         1 UNK         0.2980 
    131 H131       35.2735   26.1666    3.7917 H         1 UNK         0.0545 
    132 H132       39.1426   26.1980    2.8323 H         1 UNK         0.3459 
    133 H133       38.2883   27.6425    3.3141 H         1 UNK         0.3459 
    134 H134       35.8200   24.9472    5.8630 H         1 UNK         0.0616 
    135 H135       36.7675   26.2875    6.4520 H         1 UNK         0.0616 
    136 H136       33.4805   24.5545    6.9679 H         1 UNK         0.0634 
    137 H137       32.2308   25.7721    6.8563 H         1 UNK         0.0634 
@<TRIPOS>BOND
     1    1    2 1    
     2    1   72 1    
     3    1   73 1    
     4    1   74 1    
     5    2    3 2    
     6    2    4 am   BACKBONE|DICT|INTERRES
     7    4    5 1    
     8    4   75 1    
     9    5    6 1    
    10    5   35 1    
    11    5   76 1    
    12    6    7 1    
    13    6   77 1    
    14    6   78 1    
    15    7    8 1    
    16    8    9 1    
    17    8   79 1    
    18    8   80 1    
    19    9   10 ar   
    20    9   14 ar   
    21   10   11 ar   
    22   10   81 1    
    23   11   12 ar   
    24   11   71 1    
    25   12   13 ar   
    26   12   82 1    
    27   13   14 ar   
    28   13   15 1    
    29   14   83 1    
    30   15   16 1    
    31   15   84 1    
    32   15   85 1    
    33   16   17 1    
    34   17   18 1    
    35   17   86 1    
    36   17   87 1    
    37   18   19 1    
    38   18   37 1    
    39   18   88 1    
    40   19   20 am   BACKBONE|DICT|INTERRES
    41   19   89 1    
    42   20   21 2    
    43   20   22 1    
    44   22   23 1    
    45   22   24 1    
    46   22   90 1    
    47   23   91 1    
    48   23   92 1    
    49   23   93 1    
    50   24   25 am   BACKBONE|DICT|INTERRES
    51   24   94 1    
    52   25   26 2    
    53   25   27 1    
    54   27   28 1    
    55   27   29 1    
    56   27   95 1    
    57   28   96 1    
    58   28   97 1    
    59   28   98 1    
    60   29   30 am   BACKBONE|DICT|INTERRES
    61   29   99 1    
    62   30   31 2    
    63   30   32 1    
    64   32   33 1    
    65   32   34 1    
    66   32  100 1    
    67   33  101 1    
    68   33  102 1    
    69   33  103 1    
    70   34   35 am   BACKBONE|DICT|INTERRES
    71   34  104 1    
    72   35   36 2    
    73   37   38 2    
    74   37   39 am   BACKBONE|DICT|INTERRES
    75   39   40 1    
    76   39  105 1    
    77   40   41 1    
    78   40   42 1    
    79   40  106 1    
    80   41  107 1    
    81   41  108 1    
    82   41  109 1    
    83   42   43 2    
    84   42   44 am   BACKBONE|DICT|INTERRES
    85   44   45 1    
    86   44  110 1    
    87   45   46 1    
    88   45   47 1    
    89   45  111 1    
    90   46  112 1    
    91   46  113 1    
    92   46  114 1    
    93   47   48 2    
    94   47   49 am   BACKBONE|DICT|INTERRES
    95   49   50 1    
    96   49  115 1    
    97   50   51 1    
    98   50   52 1    
    99   50  116 1    
   100   51  117 1    
   101   51  118 1    
   102   51  119 1    
   103   52   53 2    
   104   52   54 am   BACKBONE|DICT|INTERRES
   105   54   55 1    
   106   54  120 1    
   107   55   56 1    
   108   55   57 1    
   109   55  121 1    
   110   56  122 1    
   111   56  123 1    
   112   56  124 1    
   113   57   58 2    
   114   57   59 am   BACKBONE|DICT|INTERRES
   115   59   60 1    
   116   59  125 1    
   117   60   61 1    
   118   60   62 1    
   119   60  126 1    
   120   61  127 1    
   121   61  128 1    
   122   61  129 1    
   123   62   63 2    
   124   62   64 am   BACKBONE|DICT|INTERRES
   125   64   65 1    
   126   64  130 1    
   127   65   66 1    
   128   65   69 1    
   129   65  131 1    
   130   66   67 am   BACKBONE|DICT|INTERRES
   131   66   68 2    
   132   67  132 1    
   133   67  133 1    
   134   69   70 1    
   135   69  134 1    
   136   69  135 1    
   137   70   71 1    
   138   71  136 1    
   139   71  137 1    
@<TRIPOS>SUBSTRUCTURE
     1 UNK         1 GROUP             0       ****    0 ROOT    
