@<TRIPOS>MOLECULE
3R136
137   139    1
SMALL
USER_CHARGES


@<TRIPOS>ATOM
      1 CA         27.1385   28.3056   -3.3943 C.3       0 UNK        -0.1979 
      2 C          28.4626   27.6301   -3.7447 C.2       0 UNK         0.4864 
      3 O          28.8978   27.7165   -4.8917 O.2       0 UNK        -0.5359 
      4 N          29.1421   26.9558   -2.8054 N.am      1 UNK        -0.4318 
      5 CA         28.7325   26.7177   -1.4148 C.3       1 UNK         0.0824 
      6 C6         29.9404   26.3449   -0.5247 C.3       12 UNK        -0.0944 
      7 S7         30.8208   24.8259   -1.0367 S.3       12 UNK        -0.2672 
      8 C8         32.2945   24.8879    0.0304 C.3       12 UNK         0.0333 
      9 C9         31.9254   25.0428    1.4984 C.ar      12 UNK        -0.0807 
     10 C10        32.0815   26.2787    2.1305 C.ar      12 UNK        -0.0894 
     11 C11        31.7252   26.4558    3.4701 C.ar      12 UNK        -0.0804 
     12 C12        31.2170   25.3583    4.1798 C.ar      12 UNK        -0.0824 
     13 C13        31.0212   24.1242    3.5493 C.ar      12 UNK        -0.0762 
     14 C14        31.3931   23.9671    2.2122 C.ar      12 UNK        -0.0782 
     15 C15        30.3662   22.9718    4.2989 C.3       12 UNK         0.0230 
     16 S16        28.5826   22.8529    3.9233 S.3       12 UNK        -0.2608 
     17 C17        27.9722   24.4476    4.5657 C.3       12 UNK        -0.0989 
     18 CA         27.7668   25.4837    3.4216 C.3       5 UNK         0.0716 
     19 N          26.5246   25.2775    2.6648 N.am      5 UNK        -0.4135 
     20 C          25.2723   25.4114    3.1317 C.2       4 UNK         0.5031 
     21 O          24.9864   25.7139    4.2907 O.2       4 UNK        -0.5229 
     22 CA         24.1275   25.1532    2.1400 C.3       4 UNK         0.0329 
     23 CB         23.7822   26.4338    1.3615 C.3       4 UNK        -0.2001 
     24 N          24.4130   24.0674    1.2016 N.am      4 UNK        -0.4303 
     25 C          24.4767   22.7659    1.5263 C.2       3 UNK         0.5044 
     26 O          24.3029   22.3404    2.6688 O.2       3 UNK        -0.5152 
     27 CA         24.7440   21.7590    0.3886 C.3       3 UNK         0.0319 
     28 CB         23.5058   20.8799    0.1423 C.3       3 UNK        -0.2001 
     29 N          25.1098   22.4188   -0.8669 N.am      3 UNK        -0.4354 
     30 C          26.3449   22.8318   -1.1763 C.2       2 UNK         0.4964 
     31 O          27.3433   22.5502   -0.5111 O.2       2 UNK        -0.5047 
     32 CA         26.4845   23.7235   -2.4289 C.3       2 UNK         0.0288 
     33 CB         25.1552   24.3627   -2.8961 C.3       2 UNK        -0.2113 
     34 N          27.4982   24.7717   -2.2682 N.am      2 UNK        -0.4145 
     35 C          27.5937   25.6830   -1.2848 C.2       1 UNK         0.5006 
     36 O          26.8277   25.7520   -0.3199 O.2       1 UNK        -0.5103 
     37 C          27.8708   26.9452    3.9052 C.2       5 UNK         0.5055 
     38 O          27.7317   27.2240    5.0980 O.2       5 UNK        -0.5220 
     39 N          28.0872   27.8540    2.9497 N.am      6 UNK        -0.4450 
     40 CA         28.2404   29.2906    3.1476 C.3       6 UNK         0.0367 
     41 CB         26.8533   29.9403    3.3280 C.3       6 UNK        -0.1929 
     42 C          28.9781   29.8673    1.9312 C.2       6 UNK         0.5070 
     43 O          29.2368   29.1340    0.9744 O.2       6 UNK        -0.5237 
     44 N          29.2685   31.1747    1.9794 N.am      7 UNK        -0.4739 
     45 CA         29.8494   31.9863    0.8995 C.3       7 UNK         0.0276 
     46 CB         28.8953   32.0495   -0.3148 C.3       7 UNK        -0.1927 
     47 C          31.2867   31.5807    0.5136 C.2       7 UNK         0.5013 
     48 O          31.6272   31.5643   -0.6712 O.2       7 UNK        -0.5193 
     49 N          32.1169   31.2991    1.5235 N.am      8 UNK        -0.4253 
     50 CA         33.5555   31.0800    1.3955 C.3       8 UNK         0.0242 
     51 CB         33.8485   29.5985    1.1057 C.3       8 UNK        -0.2000 
     52 C          34.2205   31.5186    2.7023 C.2       8 UNK         0.4948 
     53 O          33.5593   31.5261    3.7445 O.2       8 UNK        -0.5275 
     54 N          35.5220   31.8327    2.6347 N.am      9 UNK        -0.4246 
     55 CA         36.3393   32.3240    3.7536 C.3       9 UNK         0.0261 
     56 CB         37.7626   32.6221    3.2552 C.3       9 UNK        -0.1959 
     57 C          36.3835   31.3891    4.9759 C.2       9 UNK         0.5033 
     58 O          36.4709   31.8771    6.1034 O.2       9 UNK        -0.5390 
     59 N          36.2644   30.0742    4.7411 N.am      10 UNK        -0.4215 
     60 CA         36.1454   29.0372    5.7721 C.3       10 UNK         0.0240 
     61 CB         36.1798   27.6543    5.0999 C.3       10 UNK        -0.1982 
     62 C          34.8913   29.1723    6.6602 C.2       10 UNK         0.4970 
     63 O          34.9044   28.6743    7.7865 O.2       10 UNK        -0.4916 
     64 N          33.8517   29.8439    6.1500 N.am      11 UNK        -0.4279 
     65 CA         32.6158   30.1808    6.8673 C.3       11 UNK         0.1003 
     66 C          32.6137   31.6412    7.4096 C.2       11 UNK         0.5709 
     67 N          33.6992   32.4020    7.3111 N.am      11 UNK        -0.7358 
     68 O          31.6110   32.0918    7.9589 O.2       11 UNK        -0.4999 
     69 C69        31.3697   29.8773    5.9921 C.3       12 UNK        -0.0954 
     70 S70        31.1362   28.0889    5.7251 S.3       12 UNK        -0.2268 
     71 C71        31.8956   27.8494    4.0831 C.3       12 UNK         0.0203 
     72 H72        26.3775   27.5694   -3.1382 H         1 UNK         0.0888 
     73 H73        27.2579   28.9975   -2.5611 H         1 UNK         0.0888 
     74 H74        26.7683   28.8790   -4.2440 H         1 UNK         0.0888 
     75 H75        30.0246   26.5348   -3.0603 H         1 UNK         0.3017 
     76 H76        28.3360   27.6548   -1.0218 H         1 UNK         0.0873 
     77 H77        29.6155   26.2308    0.5109 H         1 UNK         0.0745 
     78 H78        30.6532   27.1714   -0.5192 H         1 UNK         0.0745 
     79 H79        32.9360   25.7081   -0.2960 H         1 UNK         0.0705 
     80 H80        32.8729   23.9732   -0.1071 H         1 UNK         0.0705 
     81 H81        32.4630   27.1134    1.5621 H         1 UNK         0.1334 
     82 H82        30.9357   25.4610    5.2173 H         1 UNK         0.1417 
     83 H83        31.2374   23.0182    1.7165 H         1 UNK         0.1562 
     84 H84        30.5061   23.0818    5.3755 H         1 UNK         0.0748 
     85 H85        30.8492   22.0329    4.0242 H         1 UNK         0.0748 
     86 H86        28.6793   24.8080    5.3137 H         1 UNK         0.0940 
     87 H87        27.0465   24.2752    5.1156 H         1 UNK         0.0940 
     88 H88        28.5785   25.3563    2.7034 H         1 UNK         0.0703 
     89 H89        26.6376   25.0899    1.6743 H         1 UNK         0.3081 
     90 H90        23.2481   24.8668    2.7212 H         1 UNK         0.0719 
     91 H91        24.6146   26.7742    0.7451 H         1 UNK         0.0809 
     92 H92        22.9214   26.2828    0.7099 H         1 UNK         0.0809 
     93 H93        23.5314   27.2470    2.0441 H         1 UNK         0.0809 
     94 H94        24.6070   24.3342    0.2478 H         1 UNK         0.2990 
     95 H95        25.5628   21.1116    0.7103 H         1 UNK         0.0690 
     96 H96        22.6429   21.4724   -0.1645 H         1 UNK         0.0788 
     97 H97        23.2243   20.3388    1.0468 H         1 UNK         0.0788 
     98 H98        23.6955   20.1356   -0.6314 H         1 UNK         0.0788 
     99 H99        24.3501   22.6710   -1.4834 H         1 UNK         0.2993 
    100 H100       26.8413   23.0687   -3.2255 H         1 UNK         0.0949 
    101 H101       24.4255   23.6081   -3.1918 H         1 UNK         0.0767 
    102 H102       24.7049   24.9833   -2.1200 H         1 UNK         0.0767 
    103 H103       25.3144   24.9973   -3.7683 H         1 UNK         0.0767 
    104 H104       28.2210   24.7864   -2.9738 H         1 UNK         0.3013 
    105 H105       28.2411   27.5649    1.9911 H         1 UNK         0.3121 
    106 H106       28.8528   29.4676    4.0342 H         1 UNK         0.0774 
    107 H107       26.9338   31.0127    3.5069 H         1 UNK         0.0815 
    108 H108       26.2287   29.8013    2.4446 H         1 UNK         0.0815 
    109 H109       26.3223   29.5158    4.1801 H         1 UNK         0.0815 
    110 H110       29.0242   31.6839    2.8180 H         1 UNK         0.2987 
    111 H111       29.9298   33.0003    1.2948 H         1 UNK         0.0949 
    112 H112       27.8943   32.3624   -0.0183 H         1 UNK         0.0806 
    113 H113       29.2513   32.7676   -1.0546 H         1 UNK         0.0806 
    114 H114       28.8111   31.0848   -0.8163 H         1 UNK         0.0806 
    115 H115       31.7923   31.3773    2.4793 H         1 UNK         0.3010 
    116 H116       33.9427   31.6987    0.5826 H         1 UNK         0.0829 
    117 H117       33.2631   29.2296    0.2631 H         1 UNK         0.0813 
    118 H118       34.9002   29.4491    0.8591 H         1 UNK         0.0813 
    119 H119       33.6289   28.9763    1.9715 H         1 UNK         0.0813 
    120 H120       35.9827   31.7794    1.7370 H         1 UNK         0.3038 
    121 H121       35.8927   33.2629    4.0879 H         1 UNK         0.0769 
    122 H122       37.7585   33.3723    2.4643 H         1 UNK         0.0811 
    123 H123       38.3854   33.0108    4.0624 H         1 UNK         0.0811 
    124 H124       38.2520   31.7272    2.8686 H         1 UNK         0.0811 
    125 H125       36.2047   29.7699    3.7805 H         1 UNK         0.3204 
    126 H126       37.0148   29.1225    6.4273 H         1 UNK         0.0748 
    127 H127       36.1100   26.8573    5.8418 H         1 UNK         0.0771 
    128 H128       35.3526   27.5212    4.4018 H         1 UNK         0.0771 
    129 H129       37.1100   27.5019    4.5521 H         1 UNK         0.0771 
    130 H130       33.9367   30.2762    5.2359 H         1 UNK         0.2980 
    131 H131       32.5404   29.5581    7.7603 H         1 UNK         0.0545 
    132 H132       34.5509   32.0541    6.8880 H         1 UNK         0.3459 
    133 H133       33.6719   33.3395    7.6784 H         1 UNK         0.3459 
    134 H134       30.4600   30.2362    6.4764 H         1 UNK         0.0616 
    135 H135       31.4258   30.3969    5.0345 H         1 UNK         0.0616 
    136 H136       32.9602   28.0682    4.1585 H         1 UNK         0.0634 
    137 H137       31.4703   28.5857    3.3996 H         1 UNK         0.0634 
@<TRIPOS>BOND
     1    1    2 1    
     2    1   72 1    
     3    1   73 1    
     4    1   74 1    
     5    2    3 2    
     6    2    4 am   BACKBONE|DICT|INTERRES
     7    4    5 1    
     8    4   75 1    
     9    5    6 1    
    10    5   35 1    
    11    5   76 1    
    12    6    7 1    
    13    6   77 1    
    14    6   78 1    
    15    7    8 1    
    16    8    9 1    
    17    8   79 1    
    18    8   80 1    
    19    9   10 ar   
    20    9   14 ar   
    21   10   11 ar   
    22   10   81 1    
    23   11   12 ar   
    24   11   71 1    
    25   12   13 ar   
    26   12   82 1    
    27   13   14 ar   
    28   13   15 1    
    29   14   83 1    
    30   15   16 1    
    31   15   84 1    
    32   15   85 1    
    33   16   17 1    
    34   17   18 1    
    35   17   86 1    
    36   17   87 1    
    37   18   19 1    
    38   18   37 1    
    39   18   88 1    
    40   19   20 am   BACKBONE|DICT|INTERRES
    41   19   89 1    
    42   20   21 2    
    43   20   22 1    
    44   22   23 1    
    45   22   24 1    
    46   22   90 1    
    47   23   91 1    
    48   23   92 1    
    49   23   93 1    
    50   24   25 am   BACKBONE|DICT|INTERRES
    51   24   94 1    
    52   25   26 2    
    53   25   27 1    
    54   27   28 1    
    55   27   29 1    
    56   27   95 1    
    57   28   96 1    
    58   28   97 1    
    59   28   98 1    
    60   29   30 am   BACKBONE|DICT|INTERRES
    61   29   99 1    
    62   30   31 2    
    63   30   32 1    
    64   32   33 1    
    65   32   34 1    
    66   32  100 1    
    67   33  101 1    
    68   33  102 1    
    69   33  103 1    
    70   34   35 am   BACKBONE|DICT|INTERRES
    71   34  104 1    
    72   35   36 2    
    73   37   38 2    
    74   37   39 am   BACKBONE|DICT|INTERRES
    75   39   40 1    
    76   39  105 1    
    77   40   41 1    
    78   40   42 1    
    79   40  106 1    
    80   41  107 1    
    81   41  108 1    
    82   41  109 1    
    83   42   43 2    
    84   42   44 am   BACKBONE|DICT|INTERRES
    85   44   45 1    
    86   44  110 1    
    87   45   46 1    
    88   45   47 1    
    89   45  111 1    
    90   46  112 1    
    91   46  113 1    
    92   46  114 1    
    93   47   48 2    
    94   47   49 am   BACKBONE|DICT|INTERRES
    95   49   50 1    
    96   49  115 1    
    97   50   51 1    
    98   50   52 1    
    99   50  116 1    
   100   51  117 1    
   101   51  118 1    
   102   51  119 1    
   103   52   53 2    
   104   52   54 am   BACKBONE|DICT|INTERRES
   105   54   55 1    
   106   54  120 1    
   107   55   56 1    
   108   55   57 1    
   109   55  121 1    
   110   56  122 1    
   111   56  123 1    
   112   56  124 1    
   113   57   58 2    
   114   57   59 am   BACKBONE|DICT|INTERRES
   115   59   60 1    
   116   59  125 1    
   117   60   61 1    
   118   60   62 1    
   119   60  126 1    
   120   61  127 1    
   121   61  128 1    
   122   61  129 1    
   123   62   63 2    
   124   62   64 am   BACKBONE|DICT|INTERRES
   125   64   65 1    
   126   64  130 1    
   127   65   66 1    
   128   65   69 1    
   129   65  131 1    
   130   66   67 am   BACKBONE|DICT|INTERRES
   131   66   68 2    
   132   67  132 1    
   133   67  133 1    
   134   69   70 1    
   135   69  134 1    
   136   69  135 1    
   137   70   71 1    
   138   71  136 1    
   139   71  137 1    
@<TRIPOS>SUBSTRUCTURE
     1 UNK         1 GROUP             0       ****    0 ROOT    
