@<TRIPOS>MOLECULE
3R136
137   139    1
SMALL
USER_CHARGES


@<TRIPOS>ATOM
      1 CA         27.7721   21.2065   -3.1935 C.3       0 UNK        -0.1979 
      2 C          28.5357   22.5015   -2.9619 C.2       0 UNK         0.4864 
      3 O          28.7676   23.2552   -3.9089 O.2       0 UNK        -0.5359 
      4 N          28.9207   22.7768   -1.7082 N.am      1 UNK        -0.4318 
      5 CA         29.6437   23.9822   -1.2885 C.3       1 UNK         0.0824 
      6 C6         30.4287   23.7253    0.0197 C.3       12 UNK        -0.0944 
      7 S7         31.8357   24.8689    0.2256 S.3       12 UNK        -0.2672 
      8 C8         33.0129   23.8282    1.1498 C.3       12 UNK         0.0333 
      9 C9         32.6240   23.7230    2.6170 C.ar      12 UNK        -0.0807 
     10 C10        33.2404   24.5410    3.5678 C.ar      12 UNK        -0.0894 
     11 C11        32.8637   24.4778    4.9129 C.ar      12 UNK        -0.0804 
     12 C12        31.8550   23.5914    5.3027 C.ar      12 UNK        -0.0824 
     13 C13        31.2200   22.7796    4.3565 C.ar      12 UNK        -0.0762 
     14 C14        31.6318   22.8265    3.0229 C.ar      12 UNK        -0.0782 
     15 C15        30.0520   21.8894    4.7587 C.3       12 UNK         0.0230 
     16 S16        28.4714   22.4941    4.0683 S.3       12 UNK        -0.2608 
     17 C17        28.4257   24.2053    4.6990 C.3       12 UNK        -0.0989 
     18 CA         28.6970   25.2431    3.5680 C.3       5 UNK         0.0716 
     19 N          27.5297   25.5672    2.7311 N.am      5 UNK        -0.4135 
     20 C          26.3762   26.1156    3.1499 C.2       4 UNK         0.5031 
     21 O          26.0982   26.3001    4.3364 O.2       4 UNK        -0.5229 
     22 CA         25.3682   26.5878    2.0959 C.3       4 UNK         0.0329 
     23 CB         25.6449   28.0567    1.7292 C.3       4 UNK        -0.2001 
     24 N          25.3778   25.7803    0.8756 N.am      4 UNK        -0.4303 
     25 C          24.2776   25.3102    0.2666 C.2       3 UNK         0.5044 
     26 O          23.1459   25.3834    0.7497 O.2       3 UNK        -0.5152 
     27 CA         24.4655   24.6682   -1.1279 C.3       3 UNK         0.0319 
     28 CB         23.1987   24.7573   -2.0051 C.3       3 UNK        -0.2001 
     29 N          25.6344   25.1898   -1.8473 N.am      3 UNK        -0.4354 
     30 C          25.8977   26.4676   -2.1706 C.2       2 UNK         0.4964 
     31 O          25.0765   27.3808   -2.0792 O.2       2 UNK        -0.5047 
     32 CA         27.3376   26.7894   -2.6287 C.3       2 UNK         0.0288 
     33 CB         27.8438   28.1173   -2.0269 C.3       2 UNK        -0.2113 
     34 N          28.3111   25.7152   -2.3728 N.am      2 UNK        -0.4145 
     35 C          28.6626   25.1704   -1.1963 C.2       1 UNK         0.5006 
     36 O          28.1695   25.4954   -0.1095 O.2       1 UNK        -0.5103 
     37 C          29.3611   26.5295    4.0957 C.2       5 UNK         0.5055 
     38 O          30.4228   26.9140    3.6051 O.2       5 UNK        -0.5220 
     39 N          28.7008   27.2079    5.0424 N.am      6 UNK        -0.4450 
     40 CA         29.1166   28.4823    5.6297 C.3       6 UNK         0.0367 
     41 CB         28.4573   28.6369    7.0117 C.3       6 UNK        -0.1929 
     42 C          28.8349   29.6741    4.6923 C.2       6 UNK         0.5070 
     43 O          28.1711   30.6349    5.0862 O.2       6 UNK        -0.5237 
     44 N          29.3452   29.5865    3.4596 N.am      7 UNK        -0.4739 
     45 CA         29.3567   30.6621    2.4710 C.3       7 UNK         0.0276 
     46 CB         29.6298   30.0501    1.0876 C.3       7 UNK        -0.1927 
     47 C          30.4386   31.6948    2.8202 C.2       7 UNK         0.5013 
     48 O          31.4425   31.3365    3.4409 O.2       7 UNK        -0.5193 
     49 N          30.2555   32.9423    2.3671 N.am      8 UNK        -0.4253 
     50 CA         31.1769   34.0638    2.6057 C.3       8 UNK         0.0242 
     51 CB         30.5603   35.3555    2.0444 C.3       8 UNK        -0.2000 
     52 C          32.5974   33.8574    2.0429 C.2       8 UNK         0.4948 
     53 O          33.5489   34.4214    2.5837 O.2       8 UNK        -0.5275 
     54 N          32.7164   33.0411    0.9874 N.am      9 UNK        -0.4246 
     55 CA         33.9848   32.6113    0.3938 C.3       9 UNK         0.0261 
     56 CB         33.7420   32.2799   -1.0892 C.3       9 UNK        -0.1959 
     57 C          34.6241   31.4077    1.1185 C.2       9 UNK         0.5033 
     58 O          35.7392   31.0269    0.7575 O.2       9 UNK        -0.5390 
     59 N          33.9192   30.8143    2.0904 N.am      10 UNK        -0.4215 
     60 CA         34.3252   29.6355    2.8497 C.3       10 UNK         0.0240 
     61 CB         33.4060   28.4577    2.4600 C.3       10 UNK        -0.1982 
     62 C          34.3094   29.9785    4.3504 C.2       10 UNK         0.4970 
     63 O          34.8305   31.0269    4.7356 O.2       10 UNK        -0.4916 
     64 N          33.7395   29.0902    5.1717 N.am      11 UNK        -0.4279 
     65 CA         33.6203   29.2155    6.6328 C.3       11 UNK         0.1003 
     66 C          32.4840   30.1573    7.1345 C.2       11 UNK         0.5709 
     67 N          31.7335   30.8370    6.2772 N.am      11 UNK        -0.7358 
     68 O          32.2903   30.2954    8.3400 O.2       11 UNK        -0.4999 
     69 C69        33.6024   27.8206    7.3224 C.3       12 UNK        -0.0954 
     70 S70        32.4138   26.6434    6.5866 S.3       12 UNK        -0.2268 
     71 C71        33.5444   25.3711    5.9394 C.3       12 UNK         0.0203 
     72 H72        27.6357   20.6423   -2.2711 H         1 UNK         0.0888 
     73 H73        26.7878   21.4205   -3.6092 H         1 UNK         0.0888 
     74 H74        28.3107   20.5757   -3.9000 H         1 UNK         0.0888 
     75 H75        28.6825   22.1317   -0.9680 H         1 UNK         0.3017 
     76 H76        30.3735   24.2163   -2.0676 H         1 UNK         0.0873 
     77 H77        29.7836   23.7596    0.8978 H         1 UNK         0.0745 
     78 H78        30.8357   22.7136   -0.0079 H         1 UNK         0.0745 
     79 H79        34.0082   24.2654    1.0570 H         1 UNK         0.0705 
     80 H80        33.0771   22.8362    0.7003 H         1 UNK         0.0705 
     81 H81        34.0112   25.2316    3.2567 H         1 UNK         0.1334 
     82 H82        31.5468   23.5591    6.3389 H         1 UNK         0.1417 
     83 H83        31.1428   22.1942    2.2958 H         1 UNK         0.1562 
     84 H84        29.9669   21.8265    5.8447 H         1 UNK         0.0748 
     85 H85        30.2306   20.8730    4.4050 H         1 UNK         0.0748 
     86 H86        29.1556   24.2979    5.5048 H         1 UNK         0.0940 
     87 H87        27.4616   24.3653    5.1805 H         1 UNK         0.0940 
     88 H88        29.4345   24.8120    2.8910 H         1 UNK         0.0703 
     89 H89        27.7027   25.5026    1.7318 H         1 UNK         0.3081 
     90 H90        24.3854   26.5389    2.5696 H         1 UNK         0.0719 
     91 H91        25.6317   28.6929    2.6155 H         1 UNK         0.0809 
     92 H92        26.6201   28.1766    1.2562 H         1 UNK         0.0809 
     93 H93        24.8915   28.4412    1.0414 H         1 UNK         0.0809 
     94 H94        26.2732   25.6649    0.4117 H         1 UNK         0.2990 
     95 H95        24.6670   23.6116   -0.9458 H         1 UNK         0.0690 
     96 H96        22.8922   25.7907   -2.1697 H         1 UNK         0.0788 
     97 H97        22.3601   24.2410   -1.5364 H         1 UNK         0.0788 
     98 H98        23.3574   24.2951   -2.9793 H         1 UNK         0.0788 
     99 H99        26.3838   24.5276   -1.9846 H         1 UNK         0.2993 
    100 H100       27.2887   26.9087   -3.7121 H         1 UNK         0.0949 
    101 H101       27.8475   28.0866   -0.9377 H         1 UNK         0.0767 
    102 H102       28.8566   28.3448   -2.3595 H         1 UNK         0.0767 
    103 H103       27.2109   28.9538   -2.3260 H         1 UNK         0.0767 
    104 H104       28.6938   25.2742   -3.2033 H         1 UNK         0.3013 
    105 H105       27.7648   26.8849    5.2680 H         1 UNK         0.3121 
    106 H106       30.1965   28.4541    5.7821 H         1 UNK         0.0774 
    107 H107       28.7880   29.5547    7.4999 H         1 UNK         0.0815 
    108 H108       27.3699   28.6763    6.9382 H         1 UNK         0.0815 
    109 H109       28.7222   27.8099    7.6706 H         1 UNK         0.0815 
    110 H110       29.8969   28.7597    3.2487 H         1 UNK         0.2987 
    111 H111       28.3795   31.1501    2.4659 H         1 UNK         0.0949 
    112 H112       29.5853   30.8074    0.3040 H         1 UNK         0.0806 
    113 H113       30.6149   29.5835    1.0378 H         1 UNK         0.0806 
    114 H114       28.8906   29.2884    0.8425 H         1 UNK         0.0806 
    115 H115       29.4132   33.1540    1.8509 H         1 UNK         0.3010 
    116 H116       31.2773   34.1757    3.6876 H         1 UNK         0.0829 
    117 H117       29.6002   35.5743    2.5123 H         1 UNK         0.0813 
    118 H118       31.2105   36.2116    2.2309 H         1 UNK         0.0813 
    119 H119       30.4044   35.2941    0.9666 H         1 UNK         0.0813 
    120 H120       31.8756   32.6361    0.6024 H         1 UNK         0.3038 
    121 H121       34.6989   33.4361    0.4450 H         1 UNK         0.0769 
    122 H122       33.3361   33.1372   -1.6267 H         1 UNK         0.0811 
    123 H123       34.6725   32.0014   -1.5860 H         1 UNK         0.0811 
    124 H124       33.0477   31.4472   -1.2090 H         1 UNK         0.0811 
    125 H125       33.0458   31.2327    2.3997 H         1 UNK         0.3204 
    126 H126       35.3536   29.3607    2.6079 H         1 UNK         0.0748 
    127 H127       33.4395   28.2720    1.3862 H         1 UNK         0.0771 
    128 H128       33.7102   27.5320    2.9475 H         1 UNK         0.0771 
    129 H129       32.3656   28.6497    2.7257 H         1 UNK         0.0771 
    130 H130       33.2943   28.2750    4.7755 H         1 UNK         0.2980 
    131 H131       34.5320   29.7058    6.9791 H         1 UNK         0.0545 
    132 H132       31.8853   30.7954    5.2753 H         1 UNK         0.3459 
    133 H133       31.0219   31.4483    6.6417 H         1 UNK         0.3459 
    134 H134       34.6037   27.3907    7.2726 H         1 UNK         0.0616 
    135 H135       33.3885   27.9056    8.3891 H         1 UNK         0.0616 
    136 H136       33.9144   24.7643    6.7670 H         1 UNK         0.0634 
    137 H137       34.4157   25.8546    5.4946 H         1 UNK         0.0634 
@<TRIPOS>BOND
     1    1    2 1    
     2    1   72 1    
     3    1   73 1    
     4    1   74 1    
     5    2    3 2    
     6    2    4 am   BACKBONE|DICT|INTERRES
     7    4    5 1    
     8    4   75 1    
     9    5    6 1    
    10    5   35 1    
    11    5   76 1    
    12    6    7 1    
    13    6   77 1    
    14    6   78 1    
    15    7    8 1    
    16    8    9 1    
    17    8   79 1    
    18    8   80 1    
    19    9   10 ar   
    20    9   14 ar   
    21   10   11 ar   
    22   10   81 1    
    23   11   12 ar   
    24   11   71 1    
    25   12   13 ar   
    26   12   82 1    
    27   13   14 ar   
    28   13   15 1    
    29   14   83 1    
    30   15   16 1    
    31   15   84 1    
    32   15   85 1    
    33   16   17 1    
    34   17   18 1    
    35   17   86 1    
    36   17   87 1    
    37   18   19 1    
    38   18   37 1    
    39   18   88 1    
    40   19   20 am   BACKBONE|DICT|INTERRES
    41   19   89 1    
    42   20   21 2    
    43   20   22 1    
    44   22   23 1    
    45   22   24 1    
    46   22   90 1    
    47   23   91 1    
    48   23   92 1    
    49   23   93 1    
    50   24   25 am   BACKBONE|DICT|INTERRES
    51   24   94 1    
    52   25   26 2    
    53   25   27 1    
    54   27   28 1    
    55   27   29 1    
    56   27   95 1    
    57   28   96 1    
    58   28   97 1    
    59   28   98 1    
    60   29   30 am   BACKBONE|DICT|INTERRES
    61   29   99 1    
    62   30   31 2    
    63   30   32 1    
    64   32   33 1    
    65   32   34 1    
    66   32  100 1    
    67   33  101 1    
    68   33  102 1    
    69   33  103 1    
    70   34   35 am   BACKBONE|DICT|INTERRES
    71   34  104 1    
    72   35   36 2    
    73   37   38 2    
    74   37   39 am   BACKBONE|DICT|INTERRES
    75   39   40 1    
    76   39  105 1    
    77   40   41 1    
    78   40   42 1    
    79   40  106 1    
    80   41  107 1    
    81   41  108 1    
    82   41  109 1    
    83   42   43 2    
    84   42   44 am   BACKBONE|DICT|INTERRES
    85   44   45 1    
    86   44  110 1    
    87   45   46 1    
    88   45   47 1    
    89   45  111 1    
    90   46  112 1    
    91   46  113 1    
    92   46  114 1    
    93   47   48 2    
    94   47   49 am   BACKBONE|DICT|INTERRES
    95   49   50 1    
    96   49  115 1    
    97   50   51 1    
    98   50   52 1    
    99   50  116 1    
   100   51  117 1    
   101   51  118 1    
   102   51  119 1    
   103   52   53 2    
   104   52   54 am   BACKBONE|DICT|INTERRES
   105   54   55 1    
   106   54  120 1    
   107   55   56 1    
   108   55   57 1    
   109   55  121 1    
   110   56  122 1    
   111   56  123 1    
   112   56  124 1    
   113   57   58 2    
   114   57   59 am   BACKBONE|DICT|INTERRES
   115   59   60 1    
   116   59  125 1    
   117   60   61 1    
   118   60   62 1    
   119   60  126 1    
   120   61  127 1    
   121   61  128 1    
   122   61  129 1    
   123   62   63 2    
   124   62   64 am   BACKBONE|DICT|INTERRES
   125   64   65 1    
   126   64  130 1    
   127   65   66 1    
   128   65   69 1    
   129   65  131 1    
   130   66   67 am   BACKBONE|DICT|INTERRES
   131   66   68 2    
   132   67  132 1    
   133   67  133 1    
   134   69   70 1    
   135   69  134 1    
   136   69  135 1    
   137   70   71 1    
   138   71  136 1    
   139   71  137 1    
@<TRIPOS>SUBSTRUCTURE
     1 UNK         1 GROUP             0       ****    0 ROOT    
