@<TRIPOS>MOLECULE
3R136
137   139    1
SMALL
USER_CHARGES


@<TRIPOS>ATOM
      1 CA         31.0492   20.3540   -3.5731 C.3       0 UNK        -0.1979 
      2 C          30.4548   21.6118   -2.9568 C.2       0 UNK         0.4864 
      3 O          29.8861   22.4352   -3.6754 O.2       0 UNK        -0.5359 
      4 N          30.5872   21.7709   -1.6333 N.am      1 UNK        -0.4318 
      5 CA         30.0255   22.8840   -0.8658 C.3       1 UNK         0.0824 
      6 C6         30.7042   22.9993    0.5191 C.3       12 UNK        -0.0944 
      7 S7         30.3072   24.5498    1.3989 S.3       12 UNK        -0.2672 
      8 C8         29.5929   23.8954    2.9417 C.3       12 UNK         0.0333 
      9 C9         29.7580   24.8881    4.0805 C.ar      12 UNK        -0.0807 
     10 C10        30.9834   24.9844    4.7457 C.ar      12 UNK        -0.0894 
     11 C11        31.1574   25.9013    5.7857 C.ar      12 UNK        -0.0804 
     12 C12        30.0957   26.7381    6.1438 C.ar      12 UNK        -0.0824 
     13 C13        28.8578   26.6464    5.4983 C.ar      12 UNK        -0.0762 
     14 C14        28.6917   25.6976    4.4807 C.ar      12 UNK        -0.0782 
     15 C15        27.7175   27.5532    5.9653 C.3       12 UNK         0.0230 
     16 S16        26.4515   27.9464    4.7094 S.3       12 UNK        -0.2608 
     17 C17        27.4118   28.8189    3.4225 C.3       12 UNK        -0.0989 
     18 CA         27.4267   28.0255    2.0862 C.3       5 UNK         0.0716 
     19 N          26.1037   27.7120    1.5408 N.am      5 UNK        -0.4135 
     20 C          25.1191   28.5678    1.2246 C.2       4 UNK         0.5031 
     21 O          25.1977   29.7893    1.3604 O.2       4 UNK        -0.5229 
     22 CA         23.8152   27.9761    0.6438 C.3       4 UNK         0.0329 
     23 CB         23.6245   28.4240   -0.8157 C.3       4 UNK        -0.2001 
     24 N          23.7547   26.5132    0.6930 N.am      4 UNK        -0.4303 
     25 C          23.6074   25.7710    1.7999 C.2       3 UNK         0.5044 
     26 O          23.3463   26.2400    2.9073 O.2       3 UNK        -0.5152 
     27 CA         23.8280   24.2506    1.6559 C.3       3 UNK         0.0319 
     28 CB         22.4848   23.5048    1.7120 C.3       3 UNK        -0.2001 
     29 N          24.5480   23.8512    0.4374 N.am      3 UNK        -0.4354 
     30 C          25.8011   24.2062    0.1182 C.2       2 UNK         0.4964 
     31 O          26.5094   24.9379    0.8157 O.2       2 UNK        -0.5047 
     32 CA         26.2961   23.7521   -1.2631 C.3       2 UNK         0.0288 
     33 CB         25.8047   24.7299   -2.3447 C.3       2 UNK        -0.2113 
     34 N          27.7553   23.6884   -1.3182 N.am      2 UNK        -0.4145 
     35 C          28.4955   22.7244   -0.7574 C.2       1 UNK         0.5006 
     36 O          28.0252   21.7363   -0.1869 O.2       1 UNK        -0.5103 
     37 C          28.3027   28.6545    0.9936 C.2       5 UNK         0.5055 
     38 O          28.6097   29.8465    1.0377 O.2       5 UNK        -0.5220 
     39 N          28.6640   27.8169    0.0110 N.am      6 UNK        -0.4450 
     40 CA         29.5102   28.1742   -1.1310 C.3       6 UNK         0.0367 
     41 CB         29.3961   27.0759   -2.2004 C.3       6 UNK        -0.1929 
     42 C          30.9876   28.4142   -0.7636 C.2       6 UNK         0.5070 
     43 O          31.7059   29.0249   -1.5563 O.2       6 UNK        -0.5237 
     44 N          31.4230   27.9253    0.4070 N.am      7 UNK        -0.4739 
     45 CA         32.7596   28.1398    0.9642 C.3       7 UNK         0.0276 
     46 CB         32.9071   27.3111    2.2487 C.3       7 UNK        -0.1927 
     47 C          33.0277   29.6261    1.2561 C.2       7 UNK         0.5013 
     48 O          32.1402   30.3129    1.7701 O.2       7 UNK        -0.5193 
     49 N          34.2507   30.0802    0.9454 N.am      8 UNK        -0.4253 
     50 CA         34.7157   31.4655    1.0736 C.3       8 UNK         0.0242 
     51 CB         36.1970   31.5439    0.6675 C.3       8 UNK        -0.2000 
     52 C          34.5087   32.0253    2.4893 C.2       8 UNK         0.4948 
     53 O          35.1265   31.5267    3.4321 O.2       8 UNK        -0.5275 
     54 N          33.6007   33.0049    2.6082 N.am      9 UNK        -0.4246 
     55 CA         33.1511   33.6501    3.8492 C.3       9 UNK         0.0261 
     56 CB         34.2784   34.5293    4.4331 C.3       9 UNK        -0.1959 
     57 C          32.5668   32.6688    4.8903 C.2       9 UNK         0.5033 
     58 O          32.6663   32.9373    6.0889 O.2       9 UNK        -0.5390 
     59 N          31.9827   31.5526    4.4192 N.am      10 UNK        -0.4215 
     60 CA         31.5059   30.4083    5.2066 C.3       10 UNK         0.0240 
     61 CB         30.2969   30.7949    6.0859 C.3       10 UNK        -0.1982 
     62 C          32.6515   29.7393    5.9927 C.2       10 UNK         0.4970 
     63 O          32.5277   29.5144    7.1980 O.2       10 UNK        -0.4916 
     64 N          33.7446   29.4472    5.2753 N.am      11 UNK        -0.4279 
     65 CA         35.0032   28.8760    5.7820 C.3       11 UNK         0.1003 
     66 C          35.8271   29.9042    6.6093 C.2       11 UNK         0.5709 
     67 N          35.9786   31.1279    6.1201 N.am      11 UNK        -0.7358 
     68 O          36.3406   29.6031    7.6852 O.2       11 UNK        -0.4999 
     69 C69        34.8502   27.4933    6.4839 C.3       12 UNK        -0.0954 
     70 S70        33.9083   26.2826    5.4929 S.3       12 UNK        -0.2268 
     71 C71        32.4676   25.9554    6.5615 C.3       12 UNK         0.0203 
     72 H72        31.7943   20.6196   -4.3226 H         1 UNK         0.0888 
     73 H73        31.5298   19.7217   -2.8267 H         1 UNK         0.0888 
     74 H74        30.2685   19.7702   -4.0600 H         1 UNK         0.0888 
     75 H75        31.0379   21.0477   -1.0909 H         1 UNK         0.3017 
     76 H76        30.2475   23.7999   -1.4170 H         1 UNK         0.0873 
     77 H77        31.7885   22.9800    0.3970 H         1 UNK         0.0745 
     78 H78        30.4627   22.1318    1.1358 H         1 UNK         0.0745 
     79 H79        30.0835   22.9617    3.2201 H         1 UNK         0.0705 
     80 H80        28.5408   23.6568    2.7761 H         1 UNK         0.0705 
     81 H81        31.8037   24.3422    4.4546 H         1 UNK         0.1334 
     82 H82        30.2263   27.4474    6.9501 H         1 UNK         0.1417 
     83 H83        27.7333   25.5859    3.9935 H         1 UNK         0.1562 
     84 H84        28.1153   28.4941    6.3453 H         1 UNK         0.0748 
     85 H85        27.2222   27.0696    6.8080 H         1 UNK         0.0748 
     86 H86        28.4316   28.9799    3.7774 H         1 UNK         0.0940 
     87 H87        26.9849   29.8133    3.2842 H         1 UNK         0.0940 
     88 H88        27.8853   27.0600    2.2930 H         1 UNK         0.0703 
     89 H89        25.9577   26.7254    1.3520 H         1 UNK         0.3081 
     90 H90        22.9883   28.3717    1.2373 H         1 UNK         0.0719 
     91 H91        24.4267   28.0591   -1.4585 H         1 UNK         0.0809 
     92 H92        22.6779   28.0662   -1.2213 H         1 UNK         0.0809 
     93 H93        23.6154   29.5122   -0.8933 H         1 UNK         0.0809 
     94 H94        23.9401   26.0279   -0.1718 H         1 UNK         0.2990 
     95 H95        24.4310   23.9350    2.5100 H         1 UNK         0.0690 
     96 H96        22.6292   22.4242    1.7089 H         1 UNK         0.0788 
     97 H97        21.8443   23.7622    0.8674 H         1 UNK         0.0788 
     98 H98        21.9375   23.7525    2.6228 H         1 UNK         0.0788 
     99 H99        24.0339   23.2687   -0.2089 H         1 UNK         0.2993 
    100 H100       25.8966   22.7572   -1.4732 H         1 UNK         0.0949 
    101 H101       26.1570   24.4359   -3.3339 H         1 UNK         0.0767 
    102 H102       24.7151   24.7546   -2.3887 H         1 UNK         0.0767 
    103 H103       26.1463   25.7488   -2.1568 H         1 UNK         0.0767 
    104 H104       28.2211   24.4526   -1.7817 H         1 UNK         0.3013 
    105 H105       28.3532   26.8565    0.0636 H         1 UNK         0.3121 
    106 H106       29.1275   29.1053   -1.5547 H         1 UNK         0.0774 
    107 H107       29.9717   27.3383   -3.0893 H         1 UNK         0.0815 
    108 H108       29.7800   26.1231   -1.8373 H         1 UNK         0.0815 
    109 H109       28.3635   26.9333   -2.5185 H         1 UNK         0.0815 
    110 H110       30.7654   27.4304    0.9906 H         1 UNK         0.2987 
    111 H111       33.4865   27.7836    0.2311 H         1 UNK         0.0949 
    112 H112       33.8967   27.4462    2.6869 H         1 UNK         0.0806 
    113 H113       32.1736   27.5963    3.0046 H         1 UNK         0.0806 
    114 H114       32.7868   26.2455    2.0538 H         1 UNK         0.0806 
    115 H115       34.9179   29.4282    0.5593 H         1 UNK         0.3010 
    116 H116       34.1400   32.0675    0.3675 H         1 UNK         0.0829 
    117 H117       36.3453   31.2264   -0.3649 H         1 UNK         0.0813 
    118 H118       36.5695   32.5662    0.7471 H         1 UNK         0.0813 
    119 H119       36.8242   30.9194    1.3054 H         1 UNK         0.0813 
    120 H120       33.1233   33.3082    1.7699 H         1 UNK         0.3038 
    121 H121       32.3293   34.3107    3.5693 H         1 UNK         0.0769 
    122 H122       33.9180   35.1248    5.2728 H         1 UNK         0.0811 
    123 H123       34.6657   35.2251    3.6890 H         1 UNK         0.0811 
    124 H124       35.1123   33.9277    4.7961 H         1 UNK         0.0811 
    125 H125       31.9752   31.4058    3.4120 H         1 UNK         0.3204 
    126 H126       31.1590   29.6634    4.4881 H         1 UNK         0.0748 
    127 H127       29.9209   29.9305    6.6315 H         1 UNK         0.0771 
    128 H128       30.5544   31.5507    6.8280 H         1 UNK         0.0771 
    129 H129       29.4758   31.1813    5.4821 H         1 UNK         0.0771 
    130 H130       33.7789   29.7577    4.3152 H         1 UNK         0.2980 
    131 H131       35.6068   28.6974    4.8914 H         1 UNK         0.0545 
    132 H132       36.5072   31.8093    6.6396 H         1 UNK         0.3459 
    133 H133       35.6096   31.3576    5.1995 H         1 UNK         0.3459 
    134 H134       35.8365   27.0625    6.6637 H         1 UNK         0.0616 
    135 H135       34.4014   27.6115    7.4703 H         1 UNK         0.0616 
    136 H136       32.3991   26.7092    7.3459 H         1 UNK         0.0634 
    137 H137       32.6199   25.0028    7.0702 H         1 UNK         0.0634 
@<TRIPOS>BOND
     1    1    2 1    
     2    1   72 1    
     3    1   73 1    
     4    1   74 1    
     5    2    3 2    
     6    2    4 am   BACKBONE|DICT|INTERRES
     7    4    5 1    
     8    4   75 1    
     9    5    6 1    
    10    5   35 1    
    11    5   76 1    
    12    6    7 1    
    13    6   77 1    
    14    6   78 1    
    15    7    8 1    
    16    8    9 1    
    17    8   79 1    
    18    8   80 1    
    19    9   10 ar   
    20    9   14 ar   
    21   10   11 ar   
    22   10   81 1    
    23   11   12 ar   
    24   11   71 1    
    25   12   13 ar   
    26   12   82 1    
    27   13   14 ar   
    28   13   15 1    
    29   14   83 1    
    30   15   16 1    
    31   15   84 1    
    32   15   85 1    
    33   16   17 1    
    34   17   18 1    
    35   17   86 1    
    36   17   87 1    
    37   18   19 1    
    38   18   37 1    
    39   18   88 1    
    40   19   20 am   BACKBONE|DICT|INTERRES
    41   19   89 1    
    42   20   21 2    
    43   20   22 1    
    44   22   23 1    
    45   22   24 1    
    46   22   90 1    
    47   23   91 1    
    48   23   92 1    
    49   23   93 1    
    50   24   25 am   BACKBONE|DICT|INTERRES
    51   24   94 1    
    52   25   26 2    
    53   25   27 1    
    54   27   28 1    
    55   27   29 1    
    56   27   95 1    
    57   28   96 1    
    58   28   97 1    
    59   28   98 1    
    60   29   30 am   BACKBONE|DICT|INTERRES
    61   29   99 1    
    62   30   31 2    
    63   30   32 1    
    64   32   33 1    
    65   32   34 1    
    66   32  100 1    
    67   33  101 1    
    68   33  102 1    
    69   33  103 1    
    70   34   35 am   BACKBONE|DICT|INTERRES
    71   34  104 1    
    72   35   36 2    
    73   37   38 2    
    74   37   39 am   BACKBONE|DICT|INTERRES
    75   39   40 1    
    76   39  105 1    
    77   40   41 1    
    78   40   42 1    
    79   40  106 1    
    80   41  107 1    
    81   41  108 1    
    82   41  109 1    
    83   42   43 2    
    84   42   44 am   BACKBONE|DICT|INTERRES
    85   44   45 1    
    86   44  110 1    
    87   45   46 1    
    88   45   47 1    
    89   45  111 1    
    90   46  112 1    
    91   46  113 1    
    92   46  114 1    
    93   47   48 2    
    94   47   49 am   BACKBONE|DICT|INTERRES
    95   49   50 1    
    96   49  115 1    
    97   50   51 1    
    98   50   52 1    
    99   50  116 1    
   100   51  117 1    
   101   51  118 1    
   102   51  119 1    
   103   52   53 2    
   104   52   54 am   BACKBONE|DICT|INTERRES
   105   54   55 1    
   106   54  120 1    
   107   55   56 1    
   108   55   57 1    
   109   55  121 1    
   110   56  122 1    
   111   56  123 1    
   112   56  124 1    
   113   57   58 2    
   114   57   59 am   BACKBONE|DICT|INTERRES
   115   59   60 1    
   116   59  125 1    
   117   60   61 1    
   118   60   62 1    
   119   60  126 1    
   120   61  127 1    
   121   61  128 1    
   122   61  129 1    
   123   62   63 2    
   124   62   64 am   BACKBONE|DICT|INTERRES
   125   64   65 1    
   126   64  130 1    
   127   65   66 1    
   128   65   69 1    
   129   65  131 1    
   130   66   67 am   BACKBONE|DICT|INTERRES
   131   66   68 2    
   132   67  132 1    
   133   67  133 1    
   134   69   70 1    
   135   69  134 1    
   136   69  135 1    
   137   70   71 1    
   138   71  136 1    
   139   71  137 1    
@<TRIPOS>SUBSTRUCTURE
     1 UNK         1 GROUP             0       ****    0 ROOT    
