@<TRIPOS>MOLECULE
3R136
137   139    1
SMALL
USER_CHARGES


@<TRIPOS>ATOM
      1 CA         27.4800   22.5356   -2.1378 C.3       0 UNK        -0.1979 
      2 C          27.7476   23.2684   -0.8328 C.2       0 UNK         0.4864 
      3 O          27.4836   24.4681   -0.7471 O.2       0 UNK        -0.5359 
      4 N          28.2716   22.5606    0.1763 N.am      1 UNK        -0.4318 
      5 CA         28.5603   23.0822    1.5150 C.3       1 UNK         0.0824 
      6 C6         29.3856   22.0620    2.3403 C.3       12 UNK        -0.0944 
      7 S7         30.3286   22.8437    3.6932 S.3       12 UNK        -0.2672 
      8 C8         32.0556   22.6200    3.1575 C.3       12 UNK         0.0333 
      9 C9         32.5321   23.7386    2.2398 C.ar      12 UNK        -0.0807 
     10 C10        33.3868   24.7323    2.7291 C.ar      12 UNK        -0.0894 
     11 C11        33.8739   25.7323    1.8816 C.ar      12 UNK        -0.0804 
     12 C12        33.4935   25.7389    0.5370 C.ar      12 UNK        -0.0824 
     13 C13        32.6061   24.7768    0.0445 C.ar      12 UNK        -0.0762 
     14 C14        32.1455   23.7682    0.8963 C.ar      12 UNK        -0.0782 
     15 C15        32.1165   24.8411   -1.3987 C.3       12 UNK         0.0230 
     16 S16        31.3157   26.4324   -1.8049 S.3       12 UNK        -0.2608 
     17 C17        30.2699   26.7000   -0.3370 C.3       12 UNK        -0.0989 
     18 CA         29.1173   27.6928   -0.5954 C.3       5 UNK         0.0716 
     19 N          28.0966   27.1094   -1.4563 N.am      5 UNK        -0.4135 
     20 C          27.3561   27.7776   -2.3458 C.2       4 UNK         0.5031 
     21 O          27.5478   28.9499   -2.6721 O.2       4 UNK        -0.5229 
     22 CA         26.1699   27.0049   -2.9424 C.3       4 UNK         0.0329 
     23 CB         26.6410   26.0402   -4.0432 C.3       4 UNK        -0.2001 
     24 N          25.4577   26.2565   -1.9046 N.am      4 UNK        -0.4303 
     25 C          24.6132   26.8002   -1.0197 C.2       3 UNK         0.5044 
     26 O          24.2736   27.9825   -1.0295 O.2       3 UNK        -0.5152 
     27 CA         24.0742   25.8734    0.0742 C.3       3 UNK         0.0319 
     28 CB         23.7225   24.4607   -0.4398 C.3       3 UNK        -0.2001 
     29 N          25.0612   25.8002    1.1451 N.am      3 UNK        -0.4354 
     30 C          24.8125   25.4573    2.4139 C.2       2 UNK         0.4964 
     31 O          23.6894   25.1895    2.8462 O.2       2 UNK        -0.5047 
     32 CA         26.0411   25.3916    3.3430 C.3       2 UNK         0.0288 
     33 CB         25.7442   24.7524    4.7166 C.3       2 UNK        -0.2113 
     34 N          27.1867   24.7419    2.6931 N.am      2 UNK        -0.4145 
     35 C          27.2567   23.4810    2.2388 C.2       1 UNK         0.5006 
     36 O          26.3591   22.6432    2.3607 O.2       1 UNK        -0.5103 
     37 C          28.4482   28.0573    0.7379 C.2       5 UNK         0.5055 
     38 O          27.6113   27.2929    1.2248 O.2       5 UNK        -0.5220 
     39 N          28.8637   29.1816    1.3323 N.am      6 UNK        -0.4450 
     40 CA         28.3613   29.6684    2.6219 C.3       6 UNK         0.0367 
     41 CB         28.6746   31.1668    2.7588 C.3       6 UNK        -0.1929 
     42 C          28.8975   28.8896    3.8383 C.2       6 UNK         0.5070 
     43 O          28.3204   29.0106    4.9181 O.2       6 UNK        -0.5237 
     44 N          29.9876   28.1265    3.6591 N.am      7 UNK        -0.4739 
     45 CA         30.6579   27.2196    4.6094 C.3       7 UNK         0.0276 
     46 CB         29.7029   26.1024    5.0656 C.3       7 UNK        -0.1927 
     47 C          31.3259   27.8761    5.8344 C.2       7 UNK         0.5013 
     48 O          32.3267   27.3476    6.3213 O.2       7 UNK        -0.5193 
     49 N          30.7808   28.9942    6.3257 N.am      8 UNK        -0.4253 
     50 CA         31.2149   29.7253    7.5196 C.3       8 UNK         0.0242 
     51 CB         30.0529   30.6201    7.9907 C.3       8 UNK        -0.2000 
     52 C          32.5211   30.5188    7.3080 C.2       8 UNK         0.4948 
     53 O          32.5269   31.7427    7.4592 O.2       8 UNK        -0.5275 
     54 N          33.6023   29.8109    6.9510 N.am      9 UNK        -0.4246 
     55 CA         34.9772   30.2682    6.6887 C.3       9 UNK         0.0261 
     56 CB         35.6128   30.9060    7.9395 C.3       9 UNK        -0.1959 
     57 C          35.1147   31.1854    5.4605 C.2       9 UNK         0.5033 
     58 O          35.9239   30.8999    4.5767 O.2       9 UNK        -0.5390 
     59 N          34.3005   32.2437    5.3970 N.am      10 UNK        -0.4215 
     60 CA         34.1070   33.1021    4.2307 C.3       10 UNK         0.0240 
     61 CB         33.6602   34.4975    4.7044 C.3       10 UNK        -0.1982 
     62 C          33.0852   32.4339    3.2963 C.2       10 UNK         0.4970 
     63 O          31.9413   32.8817    3.2077 O.2       10 UNK        -0.4916 
     64 N          33.5064   31.3254    2.6766 N.am      11 UNK        -0.4279 
     65 CA         32.6573   30.4179    1.8918 C.3       11 UNK         0.1003 
     66 C          32.0544   31.0188    0.5917 C.2       11 UNK         0.5709 
     67 N          32.6153   32.0798    0.0261 N.am      11 UNK        -0.7358 
     68 O          31.0457   30.5140    0.1051 O.2       11 UNK        -0.4999 
     69 C69        33.3747   29.0781    1.5930 C.3       12 UNK        -0.0954 
     70 S70        33.9119   28.2187    3.1080 S.3       12 UNK        -0.2268 
     71 C71        34.8167   26.7996    2.4181 C.3       12 UNK         0.0203 
     72 H72        27.6868   21.4687   -2.0560 H         1 UNK         0.0888 
     73 H73        26.4374   22.6568   -2.4301 H         1 UNK         0.0888 
     74 H74        28.1070   22.9432   -2.9301 H         1 UNK         0.0888 
     75 H75        28.4249   21.5705    0.0520 H         1 UNK         0.3017 
     76 H76        29.1675   23.9781    1.3748 H         1 UNK         0.0873 
     77 H77        30.0847   21.5312    1.6935 H         1 UNK         0.0745 
     78 H78        28.7465   21.2842    2.7633 H         1 UNK         0.0745 
     79 H79        32.1805   21.6532    2.6680 H         1 UNK         0.0705 
     80 H80        32.6824   22.5806    4.0498 H         1 UNK         0.0705 
     81 H81        33.6838   24.7235    3.7691 H         1 UNK         0.1334 
     82 H82        33.8601   26.5141   -0.1221 H         1 UNK         0.1417 
     83 H83        31.4790   23.0086    0.5139 H         1 UNK         0.1562 
     84 H84        31.4049   24.0389   -1.6010 H         1 UNK         0.0748 
     85 H85        32.9594   24.6835   -2.0725 H         1 UNK         0.0748 
     86 H86        30.9173   27.0603    0.4632 H         1 UNK         0.0940 
     87 H87        29.8770   25.7396   -0.0006 H         1 UNK         0.0940 
     88 H88        29.5192   28.5991   -1.0532 H         1 UNK         0.0703 
     89 H89        27.8330   26.1527   -1.2227 H         1 UNK         0.3081 
     90 H90        25.4831   27.7265   -3.3906 H         1 UNK         0.0719 
     91 H91        27.1514   26.5816   -4.8409 H         1 UNK         0.0809 
     92 H92        27.3377   25.2943   -3.6591 H         1 UNK         0.0809 
     93 H93        25.8004   25.5135   -4.4952 H         1 UNK         0.0809 
     94 H94        25.7541   25.3011   -1.7514 H         1 UNK         0.2990 
     95 H95        23.1635   26.3341    0.4632 H         1 UNK         0.0690 
     96 H96        23.1796   23.8937    0.3164 H         1 UNK         0.0788 
     97 H97        24.6101   23.8849   -0.7020 H         1 UNK         0.0788 
     98 H98        23.0841   24.5108   -1.3227 H         1 UNK         0.0788 
     99 H99        26.0086   26.0815    0.9048 H         1 UNK         0.2993 
    100 H100       26.3385   26.4263    3.5229 H         1 UNK         0.0949 
    101 H101       26.6343   24.7368    5.3457 H         1 UNK         0.0767 
    102 H102       24.9792   25.3167    5.2512 H         1 UNK         0.0767 
    103 H103       25.3834   23.7282    4.6194 H         1 UNK         0.0767 
    104 H104       27.9390   25.3742    2.4550 H         1 UNK         0.3013 
    105 H105       29.5696   29.7483    0.8637 H         1 UNK         0.3121 
    106 H106       27.2750   29.5526    2.6257 H         1 UNK         0.0774 
    107 H107       28.2603   31.5697    3.6840 H         1 UNK         0.0815 
    108 H108       29.7463   31.3595    2.7750 H         1 UNK         0.0815 
    109 H109       28.2442   31.7395    1.9372 H         1 UNK         0.0815 
    110 H110       30.3975   28.1438    2.7375 H         1 UNK         0.2987 
    111 H111       31.4615   26.7439    4.0449 H         1 UNK         0.0949 
    112 H112       30.2257   25.3702    5.6826 H         1 UNK         0.0806 
    113 H113       29.2919   25.5679    4.2128 H         1 UNK         0.0806 
    114 H114       28.8698   26.4868    5.6547 H         1 UNK         0.0806 
    115 H115       29.9229   29.3090    5.8812 H         1 UNK         0.3010 
    116 H116       31.4124   28.9981    8.3101 H         1 UNK         0.0829 
    117 H117       29.7898   31.3664    7.2398 H         1 UNK         0.0813 
    118 H118       29.1603   30.0318    8.2045 H         1 UNK         0.0813 
    119 H119       30.3138   31.1537    8.9057 H         1 UNK         0.0813 
    120 H120       33.4399   28.8190    6.7875 H         1 UNK         0.3038 
    121 H121       35.5436   29.3632    6.4626 H         1 UNK         0.0769 
    122 H122       36.6569   31.1628    7.7558 H         1 UNK         0.0811 
    123 H123       35.5926   30.2201    8.7864 H         1 UNK         0.0811 
    124 H124       35.1030   31.8220    8.2392 H         1 UNK         0.0811 
    125 H125       33.6227   32.3356    6.1537 H         1 UNK         0.3204 
    126 H126       35.0485   33.2115    3.6881 H         1 UNK         0.0748 
    127 H127       33.4904   35.1620    3.8562 H         1 UNK         0.0771 
    128 H128       32.7331   34.4539    5.2779 H         1 UNK         0.0771 
    129 H129       34.4195   34.9622    5.3336 H         1 UNK         0.0771 
    130 H130       34.4502   31.0064    2.8561 H         1 UNK         0.2980 
    131 H131       31.8034   30.1831    2.5287 H         1 UNK         0.0545 
    132 H132       33.4361   32.5019    0.4289 H         1 UNK         0.3459 
    133 H133       32.2073   32.4643   -0.8110 H         1 UNK         0.3459 
    134 H134       32.7129   28.4091    1.0437 H         1 UNK         0.0616 
    135 H135       34.2456   29.2456    0.9567 H         1 UNK         0.0616 
    136 H136       35.4448   26.3739    3.2020 H         1 UNK         0.0634 
    137 H137       35.4969   27.1413    1.6364 H         1 UNK         0.0634 
@<TRIPOS>BOND
     1    1    2 1    
     2    1   72 1    
     3    1   73 1    
     4    1   74 1    
     5    2    3 2    
     6    2    4 am   BACKBONE|DICT|INTERRES
     7    4    5 1    
     8    4   75 1    
     9    5    6 1    
    10    5   35 1    
    11    5   76 1    
    12    6    7 1    
    13    6   77 1    
    14    6   78 1    
    15    7    8 1    
    16    8    9 1    
    17    8   79 1    
    18    8   80 1    
    19    9   10 ar   
    20    9   14 ar   
    21   10   11 ar   
    22   10   81 1    
    23   11   12 ar   
    24   11   71 1    
    25   12   13 ar   
    26   12   82 1    
    27   13   14 ar   
    28   13   15 1    
    29   14   83 1    
    30   15   16 1    
    31   15   84 1    
    32   15   85 1    
    33   16   17 1    
    34   17   18 1    
    35   17   86 1    
    36   17   87 1    
    37   18   19 1    
    38   18   37 1    
    39   18   88 1    
    40   19   20 am   BACKBONE|DICT|INTERRES
    41   19   89 1    
    42   20   21 2    
    43   20   22 1    
    44   22   23 1    
    45   22   24 1    
    46   22   90 1    
    47   23   91 1    
    48   23   92 1    
    49   23   93 1    
    50   24   25 am   BACKBONE|DICT|INTERRES
    51   24   94 1    
    52   25   26 2    
    53   25   27 1    
    54   27   28 1    
    55   27   29 1    
    56   27   95 1    
    57   28   96 1    
    58   28   97 1    
    59   28   98 1    
    60   29   30 am   BACKBONE|DICT|INTERRES
    61   29   99 1    
    62   30   31 2    
    63   30   32 1    
    64   32   33 1    
    65   32   34 1    
    66   32  100 1    
    67   33  101 1    
    68   33  102 1    
    69   33  103 1    
    70   34   35 am   BACKBONE|DICT|INTERRES
    71   34  104 1    
    72   35   36 2    
    73   37   38 2    
    74   37   39 am   BACKBONE|DICT|INTERRES
    75   39   40 1    
    76   39  105 1    
    77   40   41 1    
    78   40   42 1    
    79   40  106 1    
    80   41  107 1    
    81   41  108 1    
    82   41  109 1    
    83   42   43 2    
    84   42   44 am   BACKBONE|DICT|INTERRES
    85   44   45 1    
    86   44  110 1    
    87   45   46 1    
    88   45   47 1    
    89   45  111 1    
    90   46  112 1    
    91   46  113 1    
    92   46  114 1    
    93   47   48 2    
    94   47   49 am   BACKBONE|DICT|INTERRES
    95   49   50 1    
    96   49  115 1    
    97   50   51 1    
    98   50   52 1    
    99   50  116 1    
   100   51  117 1    
   101   51  118 1    
   102   51  119 1    
   103   52   53 2    
   104   52   54 am   BACKBONE|DICT|INTERRES
   105   54   55 1    
   106   54  120 1    
   107   55   56 1    
   108   55   57 1    
   109   55  121 1    
   110   56  122 1    
   111   56  123 1    
   112   56  124 1    
   113   57   58 2    
   114   57   59 am   BACKBONE|DICT|INTERRES
   115   59   60 1    
   116   59  125 1    
   117   60   61 1    
   118   60   62 1    
   119   60  126 1    
   120   61  127 1    
   121   61  128 1    
   122   61  129 1    
   123   62   63 2    
   124   62   64 am   BACKBONE|DICT|INTERRES
   125   64   65 1    
   126   64  130 1    
   127   65   66 1    
   128   65   69 1    
   129   65  131 1    
   130   66   67 am   BACKBONE|DICT|INTERRES
   131   66   68 2    
   132   67  132 1    
   133   67  133 1    
   134   69   70 1    
   135   69  134 1    
   136   69  135 1    
   137   70   71 1    
   138   71  136 1    
   139   71  137 1    
@<TRIPOS>SUBSTRUCTURE
     1 UNK         1 GROUP             0       ****    0 ROOT    
