@<TRIPOS>MOLECULE
3R136
137   139    1
SMALL
USER_CHARGES


@<TRIPOS>ATOM
      1 CA         29.6057   26.6281   -5.8769 C.3       0 UNK        -0.1979 
      2 C          29.1383   26.4193   -4.4446 C.2       0 UNK         0.4864 
      3 O          28.0133   26.7911   -4.1053 O.2       0 UNK        -0.5359 
      4 N          29.9845   25.8171   -3.5977 N.am      1 UNK        -0.4318 
      5 CA         29.7136   25.5374   -2.1835 C.3       1 UNK         0.0824 
      6 C6         31.0289   25.4589   -1.3659 C.3       12 UNK        -0.0944 
      7 S7         30.7877   25.7840    0.4158 S.3       12 UNK        -0.2672 
      8 C8         31.2946   24.1886    1.1254 C.3       12 UNK         0.0333 
      9 C9         31.5245   24.2844    2.6256 C.ar      12 UNK        -0.0807 
     10 C10        32.8224   24.3981    3.1314 C.ar      12 UNK        -0.0894 
     11 C11        33.0480   24.4282    4.5104 C.ar      12 UNK        -0.0804 
     12 C12        31.9612   24.3599    5.3860 C.ar      12 UNK        -0.0824 
     13 C13        30.6547   24.2565    4.8963 C.ar      12 UNK        -0.0762 
     14 C14        30.4461   24.2134    3.5113 C.ar      12 UNK        -0.0782 
     15 C15        29.4988   24.1094    5.8827 C.3       12 UNK         0.0230 
     16 S16        27.9430   24.8928    5.3437 S.3       12 UNK        -0.2608 
     17 C17        28.2104   26.6522    5.7558 C.3       12 UNK        -0.0989 
     18 CA         28.5252   27.5609    4.5371 C.3       5 UNK         0.0716 
     19 N          27.6279   27.3043    3.4108 N.am      5 UNK        -0.4135 
     20 C          27.7128   27.8332    2.1845 C.2       4 UNK         0.5031 
     21 O          28.6057   28.6012    1.8132 O.2       4 UNK        -0.5229 
     22 CA         26.6077   27.3908    1.2080 C.3       4 UNK         0.0329 
     23 CB         26.6921   28.0813   -0.1644 C.3       4 UNK        -0.2001 
     24 N          26.6365   25.9400    1.0139 N.am      4 UNK        -0.4303 
     25 C          26.0571   25.0332    1.8131 C.2       3 UNK         0.5044 
     26 O          25.4079   25.3399    2.8144 O.2       3 UNK        -0.5152 
     27 CA         26.2681   23.5452    1.4565 C.3       3 UNK         0.0319 
     28 CB         25.0980   22.6507    1.9176 C.3       3 UNK        -0.2001 
     29 N          26.5855   23.3193    0.0386 N.am      3 UNK        -0.4354 
     30 C          25.8116   23.5819   -1.0261 C.2       2 UNK         0.4964 
     31 O          24.6529   23.9939   -0.9538 O.2       2 UNK        -0.5047 
     32 CA         26.4904   23.4236   -2.4002 C.3       2 UNK         0.0288 
     33 CB         25.5071   23.5849   -3.5746 C.3       2 UNK        -0.2113 
     34 N          27.5676   24.4052   -2.5493 N.am      2 UNK        -0.4145 
     35 C          28.7911   24.3090   -2.0137 C.2       1 UNK         0.5006 
     36 O          29.1733   23.3127   -1.3966 O.2       1 UNK        -0.5103 
     37 C          28.4389   29.0414    4.9583 C.2       5 UNK         0.5055 
     38 O          27.3311   29.5827    5.0239 O.2       5 UNK        -0.5220 
     39 N          29.5930   29.6508    5.2588 N.am      6 UNK        -0.4450 
     40 CA         29.7815   31.0656    5.6080 C.3       6 UNK         0.0367 
     41 CB         29.2204   31.3567    7.0154 C.3       6 UNK        -0.1929 
     42 C          29.2361   32.0222    4.5258 C.2       6 UNK         0.5070 
     43 O          28.6064   33.0317    4.8488 O.2       6 UNK        -0.5237 
     44 N          29.4729   31.6708    3.2572 N.am      7 UNK        -0.4739 
     45 CA         28.9789   32.3758    2.0785 C.3       7 UNK         0.0276 
     46 CB         27.4962   32.0416    1.8158 C.3       7 UNK        -0.1927 
     47 C          29.8746   32.0648    0.8766 C.2       7 UNK         0.5013 
     48 O          30.6266   32.9418    0.4495 O.2       7 UNK        -0.5193 
     49 N          29.7932   30.8313    0.3556 N.am      8 UNK        -0.4253 
     50 CA         30.6257   30.3685   -0.7619 C.3       8 UNK         0.0242 
     51 CB         29.9564   29.1741   -1.4520 C.3       8 UNK        -0.2000 
     52 C          32.0402   29.9992   -0.2934 C.2       8 UNK         0.4948 
     53 O          33.0128   30.3125   -0.9812 O.2       8 UNK        -0.5275 
     54 N          32.1181   29.3799    0.8876 N.am      9 UNK        -0.4246 
     55 CA         33.3293   29.2085    1.6794 C.3       9 UNK         0.0261 
     56 CB         33.5310   27.7143    1.9727 C.3       9 UNK        -0.1959 
     57 C          33.1223   29.9861    2.9831 C.2       9 UNK         0.5033 
     58 O          31.9772   30.1479    3.4119 O.2       9 UNK        -0.5390 
     59 N          34.2206   30.4462    3.5956 N.am      10 UNK        -0.4215 
     60 CA         34.2008   31.1749    4.8700 C.3       10 UNK         0.0240 
     61 CB         35.5626   31.8521    5.0949 C.3       10 UNK        -0.1982 
     62 C          33.8363   30.2815    6.0693 C.2       10 UNK         0.4970 
     63 O          33.2303   30.7679    7.0246 O.2       10 UNK        -0.4916 
     64 N          34.2118   29.0003    5.9924 N.am      11 UNK        -0.4279 
     65 CA         33.8254   27.9395    6.9287 C.3       11 UNK         0.1003 
     66 C          32.3227   27.5604    6.8328 C.2       11 UNK         0.5709 
     67 N          31.7733   26.9616    7.8816 N.am      11 UNK        -0.7358 
     68 O          31.6570   27.7883    5.8258 O.2       11 UNK        -0.4999 
     69 C69        34.7620   26.7050    6.8095 C.3       12 UNK        -0.0954 
     70 S70        35.1244   26.1744    5.0961 S.3       12 UNK        -0.2268 
     71 C71        34.4715   24.4781    5.0443 C.3       12 UNK         0.0203 
     72 H72        29.5942   27.6895   -6.1230 H         1 UNK         0.0888 
     73 H73        30.6173   26.2543   -6.0346 H         1 UNK         0.0888 
     74 H74        28.9406   26.1104   -6.5674 H         1 UNK         0.0888 
     75 H75        30.8804   25.5000   -3.9409 H         1 UNK         0.3017 
     76 H76        29.1490   26.3857   -1.7963 H         1 UNK         0.0873 
     77 H77        31.5395   24.5078   -1.5272 H         1 UNK         0.0745 
     78 H78        31.7237   26.2246   -1.7153 H         1 UNK         0.0745 
     79 H79        32.2064   23.8455    0.6342 H         1 UNK         0.0705 
     80 H80        30.5313   23.4387    0.9149 H         1 UNK         0.0705 
     81 H81        33.6622   24.4454    2.4515 H         1 UNK         0.1334 
     82 H82        32.1363   24.3696    6.4531 H         1 UNK         0.1417 
     83 H83        29.4456   24.1094    3.1159 H         1 UNK         0.1562 
     84 H84        29.7737   24.4984    6.8642 H         1 UNK         0.0748 
     85 H85        29.3110   23.0439    6.0204 H         1 UNK         0.0748 
     86 H86        29.0067   26.7366    6.4962 H         1 UNK         0.0940 
     87 H87        27.3020   26.9912    6.2589 H         1 UNK         0.0940 
     88 H88        29.5391   27.3456    4.1918 H         1 UNK         0.0703 
     89 H89        26.8604   26.6693    3.5969 H         1 UNK         0.3081 
     90 H90        25.6537   27.6766    1.6566 H         1 UNK         0.0719 
     91 H91        27.5738   27.7679   -0.7184 H         1 UNK         0.0809 
     92 H92        25.8197   27.8481   -0.7751 H         1 UNK         0.0809 
     93 H93        26.7329   29.1664   -0.0613 H         1 UNK         0.0809 
     94 H94        27.1843   25.6012    0.2389 H         1 UNK         0.2990 
     95 H95        27.1533   23.2336    2.0129 H         1 UNK         0.0690 
     96 H96        25.2736   21.6052    1.6647 H         1 UNK         0.0788 
     97 H97        24.1530   22.9525    1.4650 H         1 UNK         0.0788 
     98 H98        24.9694   22.7033    2.9995 H         1 UNK         0.0788 
     99 H99        27.5365   23.0200   -0.1557 H         1 UNK         0.2993 
    100 H100       26.9099   22.4160   -2.4491 H         1 UNK         0.0949 
    101 H101       24.6910   22.8646   -3.5028 H         1 UNK         0.0767 
    102 H102       25.0639   24.5815   -3.5982 H         1 UNK         0.0767 
    103 H103       26.0031   23.4175   -4.5310 H         1 UNK         0.0767 
    104 H104       27.3515   25.2543   -3.0653 H         1 UNK         0.3013 
    105 H105       30.4500   29.1017    5.1993 H         1 UNK         0.3121 
    106 H106       30.8584   31.2314    5.6435 H         1 UNK         0.0774 
    107 H107       29.4573   32.3746    7.3267 H         1 UNK         0.0815 
    108 H108       28.1358   31.2493    7.0492 H         1 UNK         0.0815 
    109 H109       29.6497   30.6840    7.7578 H         1 UNK         0.0815 
    110 H110       30.0911   30.8798    3.0971 H         1 UNK         0.2987 
    111 H111       29.0558   33.4503    2.2598 H         1 UNK         0.0949 
    112 H112       27.1528   32.4870    0.8813 H         1 UNK         0.0806 
    113 H113       27.3220   30.9680    1.7537 H         1 UNK         0.0806 
    114 H114       26.8596   32.4300    2.6109 H         1 UNK         0.0806 
    115 H115       29.1977   30.1397    0.8065 H         1 UNK         0.3010 
    116 H116       30.7144   31.1741   -1.4943 H         1 UNK         0.0829 
    117 H117       28.9814   29.4432   -1.8580 H         1 UNK         0.0813 
    118 H118       30.5639   28.8059   -2.2799 H         1 UNK         0.0813 
    119 H119       29.8213   28.3506   -0.7527 H         1 UNK         0.0813 
    120 H120       31.2592   29.2081    1.3944 H         1 UNK         0.3038 
    121 H121       34.2014   29.6025    1.1535 H         1 UNK         0.0769 
    122 H122       34.4656   27.5432    2.5063 H         1 UNK         0.0811 
    123 H123       33.5725   27.1310    1.0528 H         1 UNK         0.0811 
    124 H124       32.7235   27.3107    2.5868 H         1 UNK         0.0811 
    125 H125       35.1243   30.2826    3.1747 H         1 UNK         0.3204 
    126 H126       33.4399   31.9557    4.8015 H         1 UNK         0.0748 
    127 H127       35.5653   32.4215    6.0256 H         1 UNK         0.0771 
    128 H128       36.3726   31.1241    5.1562 H         1 UNK         0.0771 
    129 H129       35.7966   32.5498    4.2905 H         1 UNK         0.0771 
    130 H130       34.6761   28.6810    5.1562 H         1 UNK         0.2980 
    131 H131       33.9656   28.3482    7.9314 H         1 UNK         0.0545 
    132 H132       32.3084   26.7760    8.7152 H         1 UNK         0.3459 
    133 H133       30.8000   26.7114    7.8487 H         1 UNK         0.3459 
    134 H134       34.3810   25.8664    7.3942 H         1 UNK         0.0616 
    135 H135       35.7222   26.9529    7.2640 H         1 UNK         0.0616 
    136 H136       34.5352   24.0133    6.0291 H         1 UNK         0.0634 
    137 H137       35.1175   23.8845    4.3958 H         1 UNK         0.0634 
@<TRIPOS>BOND
     1    1    2 1    
     2    1   72 1    
     3    1   73 1    
     4    1   74 1    
     5    2    3 2    
     6    2    4 am   BACKBONE|DICT|INTERRES
     7    4    5 1    
     8    4   75 1    
     9    5    6 1    
    10    5   35 1    
    11    5   76 1    
    12    6    7 1    
    13    6   77 1    
    14    6   78 1    
    15    7    8 1    
    16    8    9 1    
    17    8   79 1    
    18    8   80 1    
    19    9   10 ar   
    20    9   14 ar   
    21   10   11 ar   
    22   10   81 1    
    23   11   12 ar   
    24   11   71 1    
    25   12   13 ar   
    26   12   82 1    
    27   13   14 ar   
    28   13   15 1    
    29   14   83 1    
    30   15   16 1    
    31   15   84 1    
    32   15   85 1    
    33   16   17 1    
    34   17   18 1    
    35   17   86 1    
    36   17   87 1    
    37   18   19 1    
    38   18   37 1    
    39   18   88 1    
    40   19   20 am   BACKBONE|DICT|INTERRES
    41   19   89 1    
    42   20   21 2    
    43   20   22 1    
    44   22   23 1    
    45   22   24 1    
    46   22   90 1    
    47   23   91 1    
    48   23   92 1    
    49   23   93 1    
    50   24   25 am   BACKBONE|DICT|INTERRES
    51   24   94 1    
    52   25   26 2    
    53   25   27 1    
    54   27   28 1    
    55   27   29 1    
    56   27   95 1    
    57   28   96 1    
    58   28   97 1    
    59   28   98 1    
    60   29   30 am   BACKBONE|DICT|INTERRES
    61   29   99 1    
    62   30   31 2    
    63   30   32 1    
    64   32   33 1    
    65   32   34 1    
    66   32  100 1    
    67   33  101 1    
    68   33  102 1    
    69   33  103 1    
    70   34   35 am   BACKBONE|DICT|INTERRES
    71   34  104 1    
    72   35   36 2    
    73   37   38 2    
    74   37   39 am   BACKBONE|DICT|INTERRES
    75   39   40 1    
    76   39  105 1    
    77   40   41 1    
    78   40   42 1    
    79   40  106 1    
    80   41  107 1    
    81   41  108 1    
    82   41  109 1    
    83   42   43 2    
    84   42   44 am   BACKBONE|DICT|INTERRES
    85   44   45 1    
    86   44  110 1    
    87   45   46 1    
    88   45   47 1    
    89   45  111 1    
    90   46  112 1    
    91   46  113 1    
    92   46  114 1    
    93   47   48 2    
    94   47   49 am   BACKBONE|DICT|INTERRES
    95   49   50 1    
    96   49  115 1    
    97   50   51 1    
    98   50   52 1    
    99   50  116 1    
   100   51  117 1    
   101   51  118 1    
   102   51  119 1    
   103   52   53 2    
   104   52   54 am   BACKBONE|DICT|INTERRES
   105   54   55 1    
   106   54  120 1    
   107   55   56 1    
   108   55   57 1    
   109   55  121 1    
   110   56  122 1    
   111   56  123 1    
   112   56  124 1    
   113   57   58 2    
   114   57   59 am   BACKBONE|DICT|INTERRES
   115   59   60 1    
   116   59  125 1    
   117   60   61 1    
   118   60   62 1    
   119   60  126 1    
   120   61  127 1    
   121   61  128 1    
   122   61  129 1    
   123   62   63 2    
   124   62   64 am   BACKBONE|DICT|INTERRES
   125   64   65 1    
   126   64  130 1    
   127   65   66 1    
   128   65   69 1    
   129   65  131 1    
   130   66   67 am   BACKBONE|DICT|INTERRES
   131   66   68 2    
   132   67  132 1    
   133   67  133 1    
   134   69   70 1    
   135   69  134 1    
   136   69  135 1    
   137   70   71 1    
   138   71  136 1    
   139   71  137 1    
@<TRIPOS>SUBSTRUCTURE
     1 UNK         1 GROUP             0       ****    0 ROOT    
