@<TRIPOS>MOLECULE
3R136
137   139    1
SMALL
USER_CHARGES


@<TRIPOS>ATOM
      1 CA         30.6443   19.0761   -0.3400 C.3       0 UNK        -0.1979 
      2 C          30.2506   20.3108    0.4556 C.2       0 UNK         0.4864 
      3 O          30.1081   21.3924   -0.1197 O.2       0 UNK        -0.5359 
      4 N          30.0511   20.1627    1.7729 N.am      1 UNK        -0.4318 
      5 CA         29.7188   21.2389    2.7185 C.3       1 UNK         0.0824 
      6 C6         30.1499   20.8905    4.1692 C.3       12 UNK        -0.0944 
      7 S7         31.9693   20.7950    4.3207 S.3       12 UNK        -0.2672 
      8 C8         32.3965   22.4614    4.9386 C.3       12 UNK         0.0333 
      9 C9         31.8252   23.5582    4.0503 C.ar      12 UNK        -0.0807 
     10 C10        32.3873   23.8154    2.7949 C.ar      12 UNK        -0.0894 
     11 C11        31.7975   24.7441    1.9316 C.ar      12 UNK        -0.0804 
     12 C12        30.6489   25.4248    2.3418 C.ar      12 UNK        -0.0824 
     13 C13        30.1057   25.2125    3.6103 C.ar      12 UNK        -0.0762 
     14 C14        30.6979   24.2774    4.4622 C.ar      12 UNK        -0.0782 
     15 C15        28.9032   26.0239    4.0651 C.3       12 UNK         0.0230 
     16 S16        27.4737   25.8234    2.9527 S.3       12 UNK        -0.2608 
     17 C17        26.7350   27.4827    3.0973 C.3       12 UNK        -0.0989 
     18 CA         27.2526   28.4251    1.9831 C.3       5 UNK         0.0716 
     19 N          26.7622   28.0250    0.6598 N.am      5 UNK        -0.4135 
     20 C          26.9252   28.6813   -0.4994 C.2       4 UNK         0.5031 
     21 O          27.4420   29.7940   -0.6097 O.2       4 UNK        -0.5229 
     22 CA         26.4514   27.9363   -1.7611 C.3       4 UNK         0.0329 
     23 CB         26.8574   28.6524   -3.0674 C.3       4 UNK        -0.2001 
     24 N          26.8864   26.5345   -1.7996 N.am      4 UNK        -0.4303 
     25 C          28.1376   26.0549   -1.7338 C.2       3 UNK         0.5044 
     26 O          29.1437   26.7405   -1.5283 O.2       3 UNK        -0.5152 
     27 CA         28.2639   24.5343   -1.9409 C.3       3 UNK         0.0319 
     28 CB         29.6553   24.1194   -2.4503 C.3       3 UNK        -0.2001 
     29 N          27.9553   23.7785   -0.7262 N.am      3 UNK        -0.4354 
     30 C          26.7241   23.5801   -0.2253 C.2       2 UNK         0.4964 
     31 O          25.7109   24.0769   -0.7208 O.2       2 UNK        -0.5047 
     32 CA         26.5764   22.6604    1.0033 C.3       2 UNK         0.0288 
     33 CB         25.5325   21.5531    0.7624 C.3       2 UNK        -0.2113 
     34 N          27.8521   22.0554    1.3787 N.am      2 UNK        -0.4145 
     35 C          28.2507   21.7119    2.6062 C.2       1 UNK         0.5006 
     36 O          27.5265   21.7642    3.6023 O.2       1 UNK        -0.5103 
     37 C          26.9526   29.8981    2.3259 C.2       5 UNK         0.5055 
     38 O          25.7842   30.2797    2.4265 O.2       5 UNK        -0.5220 
     39 N          28.0246   30.6791    2.4945 N.am      6 UNK        -0.4450 
     40 CA         28.0009   32.1161    2.7673 C.3       6 UNK         0.0367 
     41 CB         28.9322   32.8110    1.7589 C.3       6 UNK        -0.1929 
     42 C          28.4447   32.4423    4.2021 C.2       6 UNK         0.5070 
     43 O          28.3815   33.6089    4.5925 O.2       6 UNK        -0.5237 
     44 N          28.9197   31.4328    4.9493 N.am      7 UNK        -0.4739 
     45 CA         29.5174   31.4807    6.2926 C.3       7 UNK         0.0276 
     46 CB         28.5526   32.0643    7.3433 C.3       7 UNK        -0.1927 
     47 C          30.8848   32.1847    6.3187 C.2       7 UNK         0.5013 
     48 O          31.8600   31.5840    6.7722 O.2       7 UNK        -0.5193 
     49 N          30.9547   33.4099    5.7828 N.am      8 UNK        -0.4253 
     50 CA         32.1852   34.1607    5.5297 C.3       8 UNK         0.0242 
     51 CB         31.8250   35.5738    5.0407 C.3       8 UNK        -0.2000 
     52 C          33.0534   33.4134    4.5036 C.2       8 UNK         0.4948 
     53 O          32.6755   33.3406    3.3334 O.2       8 UNK        -0.5275 
     54 N          34.1514   32.8140    4.9884 N.am      9 UNK        -0.4246 
     55 CA         35.0352   31.8731    4.2828 C.3       9 UNK         0.0261 
     56 CB         35.7496   32.5566    3.0967 C.3       9 UNK        -0.1959 
     57 C          34.3396   30.5532    3.8772 C.2       9 UNK         0.5033 
     58 O          34.8222   29.8704    2.9714 O.2       9 UNK        -0.5390 
     59 N          33.2422   30.2071    4.5700 N.am      10 UNK        -0.4215 
     60 CA         32.3593   29.0528    4.3773 C.3       10 UNK         0.0240 
     61 CB         33.0845   27.7244    4.6823 C.3       10 UNK        -0.1982 
     62 C          31.6610   29.0334    3.0070 C.2       10 UNK         0.4970 
     63 O          30.4612   29.3045    2.9392 O.2       10 UNK        -0.4916 
     64 N          32.4135   28.6672    1.9672 N.am      11 UNK        -0.4279 
     65 CA         31.9430   28.3888    0.6063 C.3       11 UNK         0.1003 
     66 C          31.4033   29.6297   -0.1487 C.2       11 UNK         0.5709 
     67 N          30.4964   29.4184   -1.0921 N.am      11 UNK        -0.7358 
     68 O          31.8214   30.7628    0.0795 O.2       11 UNK        -0.4999 
     69 C69        33.0196   27.6451   -0.2275 C.3       12 UNK        -0.0954 
     70 S70        33.7488   26.1910    0.6080 S.3       12 UNK        -0.2268 
     71 C71        32.3848   24.9882    0.5494 C.3       12 UNK         0.0203 
     72 H72        29.8988   18.8720   -1.1081 H         1 UNK         0.0888 
     73 H73        31.6039   19.2381   -0.8301 H         1 UNK         0.0888 
     74 H74        30.7312   18.1934    0.2934 H         1 UNK         0.0888 
     75 H75        30.1632   19.2480    2.1863 H         1 UNK         0.3017 
     76 H76        30.2955   22.1097    2.4095 H         1 UNK         0.0873 
     77 H77        29.7189   19.9364    4.4769 H         1 UNK         0.0745 
     78 H78        29.7829   21.6268    4.8858 H         1 UNK         0.0745 
     79 H79        33.4823   22.5572    4.9844 H         1 UNK         0.0705 
     80 H80        32.0360   22.5657    5.9631 H         1 UNK         0.0705 
     81 H81        33.2606   23.2634    2.4747 H         1 UNK         0.1334 
     82 H82        30.1603   26.1204    1.6778 H         1 UNK         0.1417 
     83 H83        30.2691   24.0932    5.4380 H         1 UNK         0.1562 
     84 H84        29.2051   27.0714    4.1029 H         1 UNK         0.0748 
     85 H85        28.6018   25.7523    5.0779 H         1 UNK         0.0748 
     86 H86        26.9539   27.8797    4.0910 H         1 UNK         0.0940 
     87 H87        25.6481   27.3919    3.0492 H         1 UNK         0.0940 
     88 H88        28.3361   28.3127    1.9280 H         1 UNK         0.0703 
     89 H89        26.3274   27.1153    0.6219 H         1 UNK         0.3081 
     90 H90        25.3614   27.9229   -1.7165 H         1 UNK         0.0719 
     91 H91        27.9410   28.7293   -3.1650 H         1 UNK         0.0809 
     92 H92        26.4783   28.1262   -3.9433 H         1 UNK         0.0809 
     93 H93        26.4550   29.6657   -3.1004 H         1 UNK         0.0809 
     94 H94        26.1440   25.8464   -1.8646 H         1 UNK         0.2990 
     95 H95        27.5459   24.2494   -2.7133 H         1 UNK         0.0690 
     96 H96        29.6762   23.0640   -2.7230 H         1 UNK         0.0788 
     97 H97        30.4279   24.2797   -1.7011 H         1 UNK         0.0788 
     98 H98        29.9349   24.6896   -3.3373 H         1 UNK         0.0788 
     99 H99        28.7522   23.3776   -0.2535 H         1 UNK         0.2993 
    100 H100       26.2316   23.2928    1.8239 H         1 UNK         0.0949 
    101 H101       25.3924   20.9395    1.6525 H         1 UNK         0.0767 
    102 H102       24.5598   21.9765    0.5083 H         1 UNK         0.0767 
    103 H103       25.8285   20.8952   -0.0555 H         1 UNK         0.0767 
    104 H104       28.5246   21.8979    0.6307 H         1 UNK         0.3013 
    105 H105       28.9475   30.2527    2.4261 H         1 UNK         0.3121 
    106 H106       26.9918   32.5128    2.6382 H         1 UNK         0.0774 
    107 H107       28.9190   33.8936    1.8916 H         1 UNK         0.0815 
    108 H108       29.9667   32.4809    1.8711 H         1 UNK         0.0815 
    109 H109       28.6267   32.6058    0.7325 H         1 UNK         0.0815 
    110 H110       28.9571   30.5269    4.5024 H         1 UNK         0.2987 
    111 H111       29.6996   30.4406    6.5689 H         1 UNK         0.0949 
    112 H112       28.3385   33.1192    7.1704 H         1 UNK         0.0806 
    113 H113       27.6041   31.5274    7.3506 H         1 UNK         0.0806 
    114 H114       28.9778   31.9837    8.3446 H         1 UNK         0.0806 
    115 H115       30.0966   33.7795    5.3811 H         1 UNK         0.3010 
    116 H116       32.7317   34.2523    6.4708 H         1 UNK         0.0829 
    117 H117       31.2506   36.1182    5.7904 H         1 UNK         0.0813 
    118 H118       32.7241   36.1558    4.8342 H         1 UNK         0.0813 
    119 H119       31.2354   35.5463    4.1230 H         1 UNK         0.0813 
    120 H120       34.3466   32.9239    5.9750 H         1 UNK         0.3038 
    121 H121       35.8035   31.5892    5.0035 H         1 UNK         0.0769 
    122 H122       36.5253   31.9110    2.6831 H         1 UNK         0.0811 
    123 H123       36.2324   33.4843    3.4036 H         1 UNK         0.0811 
    124 H124       35.0584   32.7886    2.2859 H         1 UNK         0.0811 
    125 H125       32.9416   30.8395    5.3069 H         1 UNK         0.3204 
    126 H126       31.5685   29.1590    5.1212 H         1 UNK         0.0748 
    127 H127       32.4109   26.8755    4.5592 H         1 UNK         0.0771 
    128 H128       33.9386   27.5534    4.0265 H         1 UNK         0.0771 
    129 H129       33.4468   27.7019    5.7099 H         1 UNK         0.0771 
    130 H130       33.4112   28.5841    2.1209 H         1 UNK         0.2980 
    131 H131       31.0907   27.7227    0.7059 H         1 UNK         0.0545 
    132 H132       30.1221   28.4910   -1.2657 H         1 UNK         0.3459 
    133 H133       30.1117   30.2074   -1.5854 H         1 UNK         0.3459 
    134 H134       32.6060   27.3208   -1.1844 H         1 UNK         0.0616 
    135 H135       33.8394   28.3246   -0.4677 H         1 UNK         0.0616 
    136 H136       32.7530   24.0497    0.1325 H         1 UNK         0.0634 
    137 H137       31.6105   25.3437   -0.1295 H         1 UNK         0.0634 
@<TRIPOS>BOND
     1    1    2 1    
     2    1   72 1    
     3    1   73 1    
     4    1   74 1    
     5    2    3 2    
     6    2    4 am   BACKBONE|DICT|INTERRES
     7    4    5 1    
     8    4   75 1    
     9    5    6 1    
    10    5   35 1    
    11    5   76 1    
    12    6    7 1    
    13    6   77 1    
    14    6   78 1    
    15    7    8 1    
    16    8    9 1    
    17    8   79 1    
    18    8   80 1    
    19    9   10 ar   
    20    9   14 ar   
    21   10   11 ar   
    22   10   81 1    
    23   11   12 ar   
    24   11   71 1    
    25   12   13 ar   
    26   12   82 1    
    27   13   14 ar   
    28   13   15 1    
    29   14   83 1    
    30   15   16 1    
    31   15   84 1    
    32   15   85 1    
    33   16   17 1    
    34   17   18 1    
    35   17   86 1    
    36   17   87 1    
    37   18   19 1    
    38   18   37 1    
    39   18   88 1    
    40   19   20 am   BACKBONE|DICT|INTERRES
    41   19   89 1    
    42   20   21 2    
    43   20   22 1    
    44   22   23 1    
    45   22   24 1    
    46   22   90 1    
    47   23   91 1    
    48   23   92 1    
    49   23   93 1    
    50   24   25 am   BACKBONE|DICT|INTERRES
    51   24   94 1    
    52   25   26 2    
    53   25   27 1    
    54   27   28 1    
    55   27   29 1    
    56   27   95 1    
    57   28   96 1    
    58   28   97 1    
    59   28   98 1    
    60   29   30 am   BACKBONE|DICT|INTERRES
    61   29   99 1    
    62   30   31 2    
    63   30   32 1    
    64   32   33 1    
    65   32   34 1    
    66   32  100 1    
    67   33  101 1    
    68   33  102 1    
    69   33  103 1    
    70   34   35 am   BACKBONE|DICT|INTERRES
    71   34  104 1    
    72   35   36 2    
    73   37   38 2    
    74   37   39 am   BACKBONE|DICT|INTERRES
    75   39   40 1    
    76   39  105 1    
    77   40   41 1    
    78   40   42 1    
    79   40  106 1    
    80   41  107 1    
    81   41  108 1    
    82   41  109 1    
    83   42   43 2    
    84   42   44 am   BACKBONE|DICT|INTERRES
    85   44   45 1    
    86   44  110 1    
    87   45   46 1    
    88   45   47 1    
    89   45  111 1    
    90   46  112 1    
    91   46  113 1    
    92   46  114 1    
    93   47   48 2    
    94   47   49 am   BACKBONE|DICT|INTERRES
    95   49   50 1    
    96   49  115 1    
    97   50   51 1    
    98   50   52 1    
    99   50  116 1    
   100   51  117 1    
   101   51  118 1    
   102   51  119 1    
   103   52   53 2    
   104   52   54 am   BACKBONE|DICT|INTERRES
   105   54   55 1    
   106   54  120 1    
   107   55   56 1    
   108   55   57 1    
   109   55  121 1    
   110   56  122 1    
   111   56  123 1    
   112   56  124 1    
   113   57   58 2    
   114   57   59 am   BACKBONE|DICT|INTERRES
   115   59   60 1    
   116   59  125 1    
   117   60   61 1    
   118   60   62 1    
   119   60  126 1    
   120   61  127 1    
   121   61  128 1    
   122   61  129 1    
   123   62   63 2    
   124   62   64 am   BACKBONE|DICT|INTERRES
   125   64   65 1    
   126   64  130 1    
   127   65   66 1    
   128   65   69 1    
   129   65  131 1    
   130   66   67 am   BACKBONE|DICT|INTERRES
   131   66   68 2    
   132   67  132 1    
   133   67  133 1    
   134   69   70 1    
   135   69  134 1    
   136   69  135 1    
   137   70   71 1    
   138   71  136 1    
   139   71  137 1    
@<TRIPOS>SUBSTRUCTURE
     1 UNK         1 GROUP             0       ****    0 ROOT    
