@<TRIPOS>MOLECULE
3R136
137   139    1
SMALL
USER_CHARGES


@<TRIPOS>ATOM
      1 CA         26.7227   20.4334   -0.8566 C.3       0 UNK        -0.1979 
      2 C          27.9388   21.2162   -0.3830 C.2       0 UNK         0.4864 
      3 O          28.9403   21.2730   -1.0967 O.2       0 UNK        -0.5359 
      4 N          27.8448   21.8218    0.8056 N.am      1 UNK        -0.4318 
      5 CA         28.8572   22.6848    1.4143 C.3       1 UNK         0.0824 
      6 C6         29.7175   21.9302    2.4672 C.3       12 UNK        -0.0944 
      7 S7         31.1023   21.0394    1.6820 S.3       12 UNK        -0.2672 
      8 C8         32.5410   22.0795    2.1175 C.3       12 UNK         0.0333 
      9 C9         32.3411   23.5554    1.7870 C.ar      12 UNK        -0.0807 
     10 C10        32.4358   24.5184    2.7971 C.ar      12 UNK        -0.0894 
     11 C11        32.2372   25.8724    2.5098 C.ar      12 UNK        -0.0804 
     12 C12        31.9121   26.2588    1.2068 C.ar      12 UNK        -0.0824 
     13 C13        31.7984   25.3050    0.1929 C.ar      12 UNK        -0.0762 
     14 C14        32.0478   23.9595    0.4805 C.ar      12 UNK        -0.0782 
     15 C15        31.3434   25.7190   -1.1963 C.3       12 UNK         0.0230 
     16 S16        29.6043   25.2490   -1.4216 S.3       12 UNK        -0.2608 
     17 C17        29.1217   26.1680   -2.9247 C.3       12 UNK        -0.0989 
     18 CA         28.0500   27.2663   -2.6706 C.3       5 UNK         0.0716 
     19 N          26.9722   26.8208   -1.7818 N.am      5 UNK        -0.4135 
     20 C          25.9285   26.0829   -2.1900 C.2       4 UNK         0.5031 
     21 O          25.6850   25.8491   -3.3754 O.2       4 UNK        -0.5229 
     22 CA         25.0088   25.4537   -1.1215 C.3       4 UNK         0.0329 
     23 CB         25.2918   23.9471   -1.0100 C.3       4 UNK        -0.2001 
     24 N          25.1407   26.0507    0.2066 N.am      4 UNK        -0.4303 
     25 C          24.7415   27.2872    0.5290 C.2       3 UNK         0.5044 
     26 O          24.1049   28.0167   -0.2319 O.2       3 UNK        -0.5152 
     27 CA         25.1469   27.8265    1.9140 C.3       3 UNK         0.0319 
     28 CB         23.9348   27.8572    2.8586 C.3       3 UNK        -0.2001 
     29 N          26.2521   27.1203    2.5798 N.am      3 UNK        -0.4354 
     30 C          27.4820   26.9224    2.0838 C.2       2 UNK         0.4964 
     31 O          27.8215   27.2610    0.9511 O.2       2 UNK        -0.5047 
     32 CA         28.5112   26.2021    2.9693 C.3       2 UNK         0.0288 
     33 CB         28.0658   25.9955    4.4342 C.3       2 UNK        -0.2113 
     34 N          28.9304   24.9323    2.3675 N.am      2 UNK        -0.4145 
     35 C          28.1435   23.8980    2.0332 C.2       1 UNK         0.5006 
     36 O          26.9191   23.8743    2.2009 O.2       1 UNK        -0.5103 
     37 C          28.6641   28.6168   -2.2552 C.2       5 UNK         0.5055 
     38 O          28.7822   29.4922   -3.1150 O.2       5 UNK        -0.5220 
     39 N          29.0511   28.7865   -0.9830 N.am      6 UNK        -0.4450 
     40 CA         29.7387   29.9763   -0.4747 C.3       6 UNK         0.0367 
     41 CB         31.1570   30.0978   -1.0807 C.3       6 UNK        -0.1929 
     42 C          29.7931   29.9467    1.0593 C.2       6 UNK         0.5070 
     43 O          30.8397   29.6350    1.6282 O.2       6 UNK        -0.5237 
     44 N          28.6804   30.2953    1.7222 N.am      7 UNK        -0.4739 
     45 CA         28.6167   30.4325    3.1879 C.3       7 UNK         0.0276 
     46 CB         27.1680   30.6750    3.6398 C.3       7 UNK        -0.1927 
     47 C          29.5293   31.5430    3.7396 C.2       7 UNK         0.5013 
     48 O          30.0408   31.4122    4.8525 O.2       7 UNK        -0.5193 
     49 N          29.7522   32.5890    2.9297 N.am      8 UNK        -0.4253 
     50 CA         30.6113   33.7433    3.2148 C.3       8 UNK         0.0242 
     51 CB         30.5016   34.7441    2.0525 C.3       8 UNK        -0.2000 
     52 C          32.0887   33.4013    3.4900 C.2       8 UNK         0.4948 
     53 O          32.7890   34.2268    4.0772 O.2       8 UNK        -0.5275 
     54 N          32.5358   32.2008    3.0907 N.am      9 UNK        -0.4246 
     55 CA         33.8549   31.6579    3.4196 C.3       9 UNK         0.0261 
     56 CB         34.1409   30.4457    2.5199 C.3       9 UNK        -0.1959 
     57 C          34.0178   31.2951    4.9108 C.2       9 UNK         0.5033 
     58 O          35.1581   31.2282    5.3720 O.2       9 UNK        -0.5390 
     59 N          32.8990   31.0939    5.6328 N.am      10 UNK        -0.4215 
     60 CA         32.8013   30.8379    7.0777 C.3       10 UNK         0.0240 
     61 CB         33.1332   32.1215    7.8679 C.3       10 UNK        -0.1982 
     62 C          33.6291   29.6201    7.5348 C.2       10 UNK         0.4970 
     63 O          34.4581   29.7340    8.4401 O.2       10 UNK        -0.4916 
     64 N          33.4024   28.4821    6.8681 N.am      11 UNK        -0.4279 
     65 CA         34.1813   27.2406    7.0232 C.3       11 UNK         0.1003 
     66 C          34.0120   26.5073    8.3864 C.2       11 UNK         0.5709 
     67 N          33.0149   26.8345    9.1998 N.am      11 UNK        -0.7358 
     68 O          34.8043   25.6260    8.7112 O.2       11 UNK        -0.4999 
     69 C69        33.9541   26.2577    5.8416 C.3       12 UNK        -0.0954 
     70 S70        34.0660   27.0655    4.2061 S.3       12 UNK        -0.2268 
     71 C71        32.3516   26.9186    3.6071 C.3       12 UNK         0.0203 
     72 H72        26.3673   20.8319   -1.8065 H         1 UNK         0.0888 
     73 H73        26.9846   19.3857   -1.0023 H         1 UNK         0.0888 
     74 H74        25.9018   20.4817   -0.1413 H         1 UNK         0.0888 
     75 H75        26.9698   21.8066    1.3142 H         1 UNK         0.3017 
     76 H76        29.4970   23.0844    0.6274 H         1 UNK         0.0873 
     77 H77        30.1299   22.6019    3.2223 H         1 UNK         0.0745 
     78 H78        29.1083   21.2140    3.0215 H         1 UNK         0.0745 
     79 H79        33.4170   21.7114    1.5819 H         1 UNK         0.0705 
     80 H80        32.7538   21.9470    3.1795 H         1 UNK         0.0705 
     81 H81        32.6716   24.2189    3.8093 H         1 UNK         0.1334 
     82 H82        31.7286   27.3011    0.9849 H         1 UNK         0.1417 
     83 H83        31.9549   23.2176   -0.3021 H         1 UNK         0.1562 
     84 H84        31.9586   25.2356   -1.9566 H         1 UNK         0.0748 
     85 H85        31.4544   26.7953   -1.3345 H         1 UNK         0.0748 
     86 H86        28.7140   25.4347   -3.6223 H         1 UNK         0.0940 
     87 H87        30.0036   26.5760   -3.4228 H         1 UNK         0.0940 
     88 H88        27.5952   27.4771   -3.6415 H         1 UNK         0.0703 
     89 H89        27.1227   26.9638   -0.7872 H         1 UNK         0.3081 
     90 H90        23.9774   25.5874   -1.4544 H         1 UNK         0.0719 
     91 H91        25.1354   23.4465   -1.9666 H         1 UNK         0.0809 
     92 H92        24.6371   23.4679   -0.2819 H         1 UNK         0.0809 
     93 H93        26.3236   23.7618   -0.7109 H         1 UNK         0.0809 
     94 H94        25.6556   25.5194    0.8972 H         1 UNK         0.2990 
     95 H95        25.4737   28.8533    1.7447 H         1 UNK         0.0690 
     96 H96        24.1744   28.3566    3.7976 H         1 UNK         0.0788 
     97 H97        23.5811   26.8520    3.0914 H         1 UNK         0.0788 
     98 H98        23.1013   28.4004    2.4105 H         1 UNK         0.0788 
     99 H99        26.0583   26.7607    3.5034 H         1 UNK         0.2993 
    100 H100       29.3900   26.8482    2.9792 H         1 UNK         0.0949 
    101 H101       28.8703   25.5553    5.0237 H         1 UNK         0.0767 
    102 H102       27.8099   26.9445    4.9078 H         1 UNK         0.0767 
    103 H103       27.2022   25.3346    4.5177 H         1 UNK         0.0767 
    104 H104       29.9139   24.8727    2.1352 H         1 UNK         0.3013 
    105 H105       28.8405   28.0680   -0.2903 H         1 UNK         0.3121 
    106 H106       29.1664   30.8598   -0.7646 H         1 UNK         0.0774 
    107 H107       31.7547   29.2063   -0.8897 H         1 UNK         0.0815 
    108 H108       31.6933   30.9450   -0.6509 H         1 UNK         0.0815 
    109 H109       31.1292   30.2568   -2.1581 H         1 UNK         0.0815 
    110 H110       27.8450   30.5159    1.1987 H         1 UNK         0.2987 
    111 H111       28.9594   29.4940    3.6294 H         1 UNK         0.0949 
    112 H112       26.7096   31.5118    3.1119 H         1 UNK         0.0806 
    113 H113       26.5507   29.7941    3.4851 H         1 UNK         0.0806 
    114 H114       27.1222   30.8999    4.7067 H         1 UNK         0.0806 
    115 H115       29.2842   32.5899    2.0353 H         1 UNK         0.3010 
    116 H116       30.2234   34.2203    4.1173 H         1 UNK         0.0829 
    117 H117       29.4736   35.0778    1.9094 H         1 UNK         0.0813 
    118 H118       31.1033   35.6339    2.2441 H         1 UNK         0.0813 
    119 H119       30.8503   34.3119    1.1136 H         1 UNK         0.0813 
    120 H120       31.8983   31.5791    2.6094 H         1 UNK         0.3038 
    121 H121       34.5992   32.4249    3.1947 H         1 UNK         0.0769 
    122 H122       33.3932   29.6649    2.6483 H         1 UNK         0.0811 
    123 H123       35.1133   30.0068    2.7480 H         1 UNK         0.0811 
    124 H124       34.1499   30.7262    1.4666 H         1 UNK         0.0811 
    125 H125       32.0042   31.1829    5.1588 H         1 UNK         0.3204 
    126 H126       31.7568   30.5923    7.2761 H         1 UNK         0.0748 
    127 H127       32.4985   32.9516    7.5572 H         1 UNK         0.0771 
    128 H128       32.9756   31.9756    8.9373 H         1 UNK         0.0771 
    129 H129       34.1716   32.4250    7.7291 H         1 UNK         0.0771 
    130 H130       32.7159   28.4806    6.1300 H         1 UNK         0.2980 
    131 H131       35.2306   27.5395    6.9847 H         1 UNK         0.0545 
    132 H132       32.9187   26.3549   10.0809 H         1 UNK         0.3459 
    133 H133       32.3645   27.5596    8.9448 H         1 UNK         0.3459 
    134 H134       34.7054   25.4663    5.8656 H         1 UNK         0.0616 
    135 H135       32.9925   25.7529    5.9442 H         1 UNK         0.0616 
    136 H136       32.0312   27.8929    3.2396 H         1 UNK         0.0634 
    137 H137       31.6654   26.6741    4.4182 H         1 UNK         0.0634 
@<TRIPOS>BOND
     1    1    2 1    
     2    1   72 1    
     3    1   73 1    
     4    1   74 1    
     5    2    3 2    
     6    2    4 am   BACKBONE|DICT|INTERRES
     7    4    5 1    
     8    4   75 1    
     9    5    6 1    
    10    5   35 1    
    11    5   76 1    
    12    6    7 1    
    13    6   77 1    
    14    6   78 1    
    15    7    8 1    
    16    8    9 1    
    17    8   79 1    
    18    8   80 1    
    19    9   10 ar   
    20    9   14 ar   
    21   10   11 ar   
    22   10   81 1    
    23   11   12 ar   
    24   11   71 1    
    25   12   13 ar   
    26   12   82 1    
    27   13   14 ar   
    28   13   15 1    
    29   14   83 1    
    30   15   16 1    
    31   15   84 1    
    32   15   85 1    
    33   16   17 1    
    34   17   18 1    
    35   17   86 1    
    36   17   87 1    
    37   18   19 1    
    38   18   37 1    
    39   18   88 1    
    40   19   20 am   BACKBONE|DICT|INTERRES
    41   19   89 1    
    42   20   21 2    
    43   20   22 1    
    44   22   23 1    
    45   22   24 1    
    46   22   90 1    
    47   23   91 1    
    48   23   92 1    
    49   23   93 1    
    50   24   25 am   BACKBONE|DICT|INTERRES
    51   24   94 1    
    52   25   26 2    
    53   25   27 1    
    54   27   28 1    
    55   27   29 1    
    56   27   95 1    
    57   28   96 1    
    58   28   97 1    
    59   28   98 1    
    60   29   30 am   BACKBONE|DICT|INTERRES
    61   29   99 1    
    62   30   31 2    
    63   30   32 1    
    64   32   33 1    
    65   32   34 1    
    66   32  100 1    
    67   33  101 1    
    68   33  102 1    
    69   33  103 1    
    70   34   35 am   BACKBONE|DICT|INTERRES
    71   34  104 1    
    72   35   36 2    
    73   37   38 2    
    74   37   39 am   BACKBONE|DICT|INTERRES
    75   39   40 1    
    76   39  105 1    
    77   40   41 1    
    78   40   42 1    
    79   40  106 1    
    80   41  107 1    
    81   41  108 1    
    82   41  109 1    
    83   42   43 2    
    84   42   44 am   BACKBONE|DICT|INTERRES
    85   44   45 1    
    86   44  110 1    
    87   45   46 1    
    88   45   47 1    
    89   45  111 1    
    90   46  112 1    
    91   46  113 1    
    92   46  114 1    
    93   47   48 2    
    94   47   49 am   BACKBONE|DICT|INTERRES
    95   49   50 1    
    96   49  115 1    
    97   50   51 1    
    98   50   52 1    
    99   50  116 1    
   100   51  117 1    
   101   51  118 1    
   102   51  119 1    
   103   52   53 2    
   104   52   54 am   BACKBONE|DICT|INTERRES
   105   54   55 1    
   106   54  120 1    
   107   55   56 1    
   108   55   57 1    
   109   55  121 1    
   110   56  122 1    
   111   56  123 1    
   112   56  124 1    
   113   57   58 2    
   114   57   59 am   BACKBONE|DICT|INTERRES
   115   59   60 1    
   116   59  125 1    
   117   60   61 1    
   118   60   62 1    
   119   60  126 1    
   120   61  127 1    
   121   61  128 1    
   122   61  129 1    
   123   62   63 2    
   124   62   64 am   BACKBONE|DICT|INTERRES
   125   64   65 1    
   126   64  130 1    
   127   65   66 1    
   128   65   69 1    
   129   65  131 1    
   130   66   67 am   BACKBONE|DICT|INTERRES
   131   66   68 2    
   132   67  132 1    
   133   67  133 1    
   134   69   70 1    
   135   69  134 1    
   136   69  135 1    
   137   70   71 1    
   138   71  136 1    
   139   71  137 1    
@<TRIPOS>SUBSTRUCTURE
     1 UNK         1 GROUP             0       ****    0 ROOT    
