@<TRIPOS>MOLECULE
3R136
137   139    1
SMALL
USER_CHARGES


@<TRIPOS>ATOM
      1 CA         26.8009   20.8991    2.0744 C.3       0 UNK        -0.1979 
      2 C          27.4541   21.9471    1.1869 C.2       0 UNK         0.4864 
      3 O          27.2897   23.1420    1.4374 O.2       0 UNK        -0.5359 
      4 N          28.1785   21.5053    0.1460 N.am      1 UNK        -0.4318 
      5 CA         28.9571   22.3263   -0.7979 C.3       1 UNK         0.0824 
      6 C6         30.2488   22.9073   -0.1575 C.3       12 UNK        -0.0944 
      7 S7         31.4403   21.5956    0.2747 S.3       12 UNK        -0.2672 
      8 C8         31.2633   21.4883    2.0883 C.3       12 UNK         0.0333 
      9 C9         31.7606   22.7152    2.8515 C.ar      12 UNK        -0.0807 
     10 C10        32.9049   23.4160    2.4496 C.ar      12 UNK        -0.0894 
     11 C11        33.3594   24.5168    3.1813 C.ar      12 UNK        -0.0804 
     12 C12        32.6757   24.9044    4.3372 C.ar      12 UNK        -0.0824 
     13 C13        31.5413   24.2072    4.7607 C.ar      12 UNK        -0.0762 
     14 C14        31.0857   23.1194    4.0086 C.ar      12 UNK        -0.0782 
     15 C15        30.8267   24.6020    6.0489 C.3       12 UNK         0.0230 
     16 S16        30.3263   26.3548    6.0899 S.3       12 UNK        -0.2608 
     17 C17        29.1330   26.4400    4.7143 C.3       12 UNK        -0.0989 
     18 CA         29.3239   27.7190    3.8549 C.3       5 UNK         0.0716 
     19 N          29.0392   27.4432    2.4447 N.am      5 UNK        -0.4135 
     20 C          29.2420   28.2877    1.4248 C.2       4 UNK         0.5031 
     21 O          29.7820   29.3849    1.5398 O.2       4 UNK        -0.5229 
     22 CA         28.7027   27.8598    0.0478 C.3       4 UNK         0.0329 
     23 CB         29.8433   27.2940   -0.8115 C.3       4 UNK        -0.2001 
     24 N          27.5883   26.8991    0.0999 N.am      4 UNK        -0.4303 
     25 C          26.4177   27.1106    0.7278 C.2       3 UNK         0.5044 
     26 O          26.1738   28.1440    1.3536 O.2       3 UNK        -0.5152 
     27 CA         25.3735   25.9774    0.7359 C.3       3 UNK         0.0319 
     28 CB         23.9239   26.5086    0.7385 C.3       3 UNK        -0.2001 
     29 N          25.5806   24.9635   -0.3024 N.am      3 UNK        -0.4354 
     30 C          25.4515   25.1076   -1.6314 C.2       2 UNK         0.4964 
     31 O          25.0644   26.1430   -2.1747 O.2       2 UNK        -0.5047 
     32 CA         25.8379   23.8868   -2.4981 C.3       2 UNK         0.0288 
     33 CB         26.2480   24.2857   -3.9325 C.3       2 UNK        -0.2113 
     34 N          26.8683   23.0288   -1.8907 N.am      2 UNK        -0.4145 
     35 C          28.0960   23.4052   -1.4948 C.2       1 UNK         0.5006 
     36 O          28.5224   24.5540   -1.6167 O.2       1 UNK        -0.5103 
     37 C          28.4955   28.8979    4.4245 C.2       5 UNK         0.5055 
     38 O          28.9500   29.5506    5.3652 O.2       5 UNK        -0.5220 
     39 N          27.2971   29.1335    3.8676 N.am      6 UNK        -0.4450 
     40 CA         26.3812   30.2036    4.2657 C.3       6 UNK         0.0367 
     41 CB         24.9909   29.6015    4.5298 C.3       6 UNK        -0.1929 
     42 C          26.2897   31.2993    3.1933 C.2       6 UNK         0.5070 
     43 O          26.1971   32.4759    3.5434 O.2       6 UNK        -0.5237 
     44 N          26.2993   30.9066    1.9110 N.am      7 UNK        -0.4739 
     45 CA         26.1816   31.8095    0.7612 C.3       7 UNK         0.0276 
     46 CB         25.7877   30.9911   -0.4794 C.3       7 UNK        -0.1927 
     47 C          27.4491   32.6390    0.4838 C.2       7 UNK         0.5013 
     48 O          27.3559   33.6642   -0.1930 O.2       7 UNK        -0.5193 
     49 N          28.5984   32.1927    0.9989 N.am      8 UNK        -0.4253 
     50 CA         29.8927   32.8632    0.9243 C.3       8 UNK         0.0242 
     51 CB         30.6927   32.2887   -0.2621 C.3       8 UNK        -0.2000 
     52 C          30.6173   32.6844    2.2685 C.2       8 UNK         0.4948 
     53 O          30.0192   32.1998    3.2329 O.2       8 UNK        -0.5275 
     54 N          31.8909   33.0939    2.3241 N.am      9 UNK        -0.4246 
     55 CA         32.7691   32.8662    3.4726 C.3       9 UNK         0.0261 
     56 CB         34.0170   33.7558    3.3469 C.3       9 UNK        -0.1959 
     57 C          33.1661   31.3830    3.5630 C.2       9 UNK         0.5033 
     58 O          33.5277   30.7893    2.5431 O.2       9 UNK        -0.5390 
     59 N          33.1123   30.8220    4.7768 N.am      10 UNK        -0.4215 
     60 CA         33.5101   29.4436    5.0651 C.3       10 UNK         0.0240 
     61 CB         32.9791   29.0432    6.4510 C.3       10 UNK        -0.1982 
     62 C          35.0367   29.2669    4.9953 C.2       10 UNK         0.4970 
     63 O          35.7823   30.1954    5.3164 O.2       10 UNK        -0.4916 
     64 N          35.4623   28.0630    4.6031 N.am      11 UNK        -0.4279 
     65 CA         36.8687   27.6498    4.4781 C.3       11 UNK         0.1003 
     66 C          37.5957   27.3551    5.8244 C.2       11 UNK         0.5709 
     67 N          36.9122   27.3319    6.9629 N.am      11 UNK        -0.7358 
     68 O          38.8089   27.1598    5.8364 O.2       11 UNK        -0.4999 
     69 C69        37.0212   26.4910    3.4532 C.3       12 UNK        -0.0954 
     70 S70        35.9934   25.0309    3.8418 S.3       12 UNK        -0.2268 
     71 C71        34.5814   25.2969    2.7240 C.3       12 UNK         0.0203 
     72 H72        25.7190   21.0282    2.0728 H         1 UNK         0.0888 
     73 H73        27.0232   19.8854    1.7419 H         1 UNK         0.0888 
     74 H74        27.1554   21.0052    3.0993 H         1 UNK         0.0888 
     75 H75        28.2535   20.5082   -0.0022 H         1 UNK         0.3017 
     76 H76        29.2644   21.6562   -1.6024 H         1 UNK         0.0873 
     77 H77        30.7643   23.5706   -0.8545 H         1 UNK         0.0745 
     78 H78        30.0139   23.5148    0.7184 H         1 UNK         0.0745 
     79 H79        30.2167   21.2901    2.3223 H         1 UNK         0.0705 
     80 H80        31.8245   20.6205    2.4367 H         1 UNK         0.0705 
     81 H81        33.4445   23.1056    1.5656 H         1 UNK         0.1334 
     82 H82        33.0306   25.7448    4.9170 H         1 UNK         0.1417 
     83 H83        30.2122   22.5719    4.3362 H         1 UNK         0.1562 
     84 H84        31.4936   24.4100    6.8905 H         1 UNK         0.0748 
     85 H85        29.9429   23.9830    6.2116 H         1 UNK         0.0748 
     86 H86        28.1191   26.3593    5.1125 H         1 UNK         0.0940 
     87 H87        29.2662   25.5501    4.0978 H         1 UNK         0.0940 
     88 H88        30.3735   28.0204    3.8922 H         1 UNK         0.0703 
     89 H89        28.5978   26.5596    2.2385 H         1 UNK         0.3081 
     90 H90        28.3308   28.7612   -0.4413 H         1 UNK         0.0719 
     91 H91        30.2373   26.3649   -0.3976 H         1 UNK         0.0809 
     92 H92        29.5101   27.0940   -1.8300 H         1 UNK         0.0809 
     93 H93        30.6723   28.0003   -0.8772 H         1 UNK         0.0809 
     94 H94        27.7261   26.0270   -0.4015 H         1 UNK         0.2990 
     95 H95        25.5245   25.4543    1.6812 H         1 UNK         0.0690 
     96 H96        23.2011   25.6929    0.7463 H         1 UNK         0.0788 
     97 H97        23.7178   27.1341   -0.1304 H         1 UNK         0.0788 
     98 H98        23.7327   27.1169    1.6235 H         1 UNK         0.0788 
     99 H99        25.9665   24.0917    0.0439 H         1 UNK         0.2993 
    100 H100       24.9353   23.2781   -2.5707 H         1 UNK         0.0949 
    101 H101       27.1108   24.9528   -3.9351 H         1 UNK         0.0767 
    102 H102       26.4992   23.4103   -4.5314 H         1 UNK         0.0767 
    103 H103       25.4356   24.8030   -4.4445 H         1 UNK         0.0767 
    104 H104       26.5969   22.0694   -1.7238 H         1 UNK         0.3013 
    105 H105       27.0077   28.5765    3.0698 H         1 UNK         0.3121 
    106 H106       26.7244   30.6765    5.1884 H         1 UNK         0.0774 
    107 H107       24.5866   29.1103    3.6434 H         1 UNK         0.0815 
    108 H108       24.2812   30.3744    4.8278 H         1 UNK         0.0815 
    109 H109       25.0253   28.8661    5.3335 H         1 UNK         0.0815 
    110 H110       26.3173   29.9105    1.7010 H         1 UNK         0.2987 
    111 H111       25.3756   32.5169    0.9689 H         1 UNK         0.0949 
    112 H112       26.5569   30.2673   -0.7472 H         1 UNK         0.0806 
    113 H113       24.8583   30.4449   -0.3165 H         1 UNK         0.0806 
    114 H114       25.6355   31.6395   -1.3433 H         1 UNK         0.0806 
    115 H115       28.5910   31.3657    1.5858 H         1 UNK         0.3010 
    116 H116       29.7451   33.9351    0.7766 H         1 UNK         0.0829 
    117 H117       30.1241   32.3528   -1.1901 H         1 UNK         0.0813 
    118 H118       31.6228   32.8342   -0.4216 H         1 UNK         0.0813 
    119 H119       30.9495   31.2406   -0.1016 H         1 UNK         0.0813 
    120 H120       32.3254   33.4544    1.4875 H         1 UNK         0.3038 
    121 H121       32.2326   33.1520    4.3804 H         1 UNK         0.0769 
    122 H122       34.5907   33.5228    2.4487 H         1 UNK         0.0811 
    123 H123       34.6812   33.6168    4.2011 H         1 UNK         0.0811 
    124 H124       33.7508   34.8124    3.3121 H         1 UNK         0.0811 
    125 H125       32.8374   31.3882    5.5662 H         1 UNK         0.3204 
    126 H126       33.0455   28.7958    4.3177 H         1 UNK         0.0748 
    127 H127       33.2109   28.0011    6.6753 H         1 UNK         0.0771 
    128 H128       33.4137   29.6536    7.2438 H         1 UNK         0.0771 
    129 H129       31.8944   29.1465    6.5030 H         1 UNK         0.0771 
    130 H130       34.7870   27.3445    4.3956 H         1 UNK         0.2980 
    131 H131       37.4074   28.5012    4.0576 H         1 UNK         0.0545 
    132 H132       37.3990   27.1463    7.8254 H         1 UNK         0.3459 
    133 H133       35.9194   27.4955    6.9681 H         1 UNK         0.3459 
    134 H134       38.0621   26.1703    3.3830 H         1 UNK         0.0616 
    135 H135       36.7649   26.8498    2.4552 H         1 UNK         0.0616 
    136 H136       34.8726   25.0106    1.7121 H         1 UNK         0.0634 
    137 H137       34.3257   26.3560    2.6799 H         1 UNK         0.0634 
@<TRIPOS>BOND
     1    1    2 1    
     2    1   72 1    
     3    1   73 1    
     4    1   74 1    
     5    2    3 2    
     6    2    4 am   BACKBONE|DICT|INTERRES
     7    4    5 1    
     8    4   75 1    
     9    5    6 1    
    10    5   35 1    
    11    5   76 1    
    12    6    7 1    
    13    6   77 1    
    14    6   78 1    
    15    7    8 1    
    16    8    9 1    
    17    8   79 1    
    18    8   80 1    
    19    9   10 ar   
    20    9   14 ar   
    21   10   11 ar   
    22   10   81 1    
    23   11   12 ar   
    24   11   71 1    
    25   12   13 ar   
    26   12   82 1    
    27   13   14 ar   
    28   13   15 1    
    29   14   83 1    
    30   15   16 1    
    31   15   84 1    
    32   15   85 1    
    33   16   17 1    
    34   17   18 1    
    35   17   86 1    
    36   17   87 1    
    37   18   19 1    
    38   18   37 1    
    39   18   88 1    
    40   19   20 am   BACKBONE|DICT|INTERRES
    41   19   89 1    
    42   20   21 2    
    43   20   22 1    
    44   22   23 1    
    45   22   24 1    
    46   22   90 1    
    47   23   91 1    
    48   23   92 1    
    49   23   93 1    
    50   24   25 am   BACKBONE|DICT|INTERRES
    51   24   94 1    
    52   25   26 2    
    53   25   27 1    
    54   27   28 1    
    55   27   29 1    
    56   27   95 1    
    57   28   96 1    
    58   28   97 1    
    59   28   98 1    
    60   29   30 am   BACKBONE|DICT|INTERRES
    61   29   99 1    
    62   30   31 2    
    63   30   32 1    
    64   32   33 1    
    65   32   34 1    
    66   32  100 1    
    67   33  101 1    
    68   33  102 1    
    69   33  103 1    
    70   34   35 am   BACKBONE|DICT|INTERRES
    71   34  104 1    
    72   35   36 2    
    73   37   38 2    
    74   37   39 am   BACKBONE|DICT|INTERRES
    75   39   40 1    
    76   39  105 1    
    77   40   41 1    
    78   40   42 1    
    79   40  106 1    
    80   41  107 1    
    81   41  108 1    
    82   41  109 1    
    83   42   43 2    
    84   42   44 am   BACKBONE|DICT|INTERRES
    85   44   45 1    
    86   44  110 1    
    87   45   46 1    
    88   45   47 1    
    89   45  111 1    
    90   46  112 1    
    91   46  113 1    
    92   46  114 1    
    93   47   48 2    
    94   47   49 am   BACKBONE|DICT|INTERRES
    95   49   50 1    
    96   49  115 1    
    97   50   51 1    
    98   50   52 1    
    99   50  116 1    
   100   51  117 1    
   101   51  118 1    
   102   51  119 1    
   103   52   53 2    
   104   52   54 am   BACKBONE|DICT|INTERRES
   105   54   55 1    
   106   54  120 1    
   107   55   56 1    
   108   55   57 1    
   109   55  121 1    
   110   56  122 1    
   111   56  123 1    
   112   56  124 1    
   113   57   58 2    
   114   57   59 am   BACKBONE|DICT|INTERRES
   115   59   60 1    
   116   59  125 1    
   117   60   61 1    
   118   60   62 1    
   119   60  126 1    
   120   61  127 1    
   121   61  128 1    
   122   61  129 1    
   123   62   63 2    
   124   62   64 am   BACKBONE|DICT|INTERRES
   125   64   65 1    
   126   64  130 1    
   127   65   66 1    
   128   65   69 1    
   129   65  131 1    
   130   66   67 am   BACKBONE|DICT|INTERRES
   131   66   68 2    
   132   67  132 1    
   133   67  133 1    
   134   69   70 1    
   135   69  134 1    
   136   69  135 1    
   137   70   71 1    
   138   71  136 1    
   139   71  137 1    
@<TRIPOS>SUBSTRUCTURE
     1 UNK         1 GROUP             0       ****    0 ROOT    
