@<TRIPOS>MOLECULE
3R136
137   139    1
SMALL
USER_CHARGES


@<TRIPOS>ATOM
      1 CA         34.8716   25.3182    0.8119 C.3       0 UNK        -0.1979 
      2 C          33.6024   26.1365    0.9894 C.2       0 UNK         0.4864 
      3 O          33.4248   26.7523    2.0406 O.2       0 UNK        -0.5359 
      4 N          32.7237   26.1324   -0.0190 N.am      1 UNK        -0.4318 
      5 CA         31.4616   26.8690   -0.0729 C.3       1 UNK         0.0824 
      6 C6         30.4074   26.3803    0.9612 C.3       12 UNK        -0.0944 
      7 S7         29.8671   24.6439    0.7367 S.3       12 UNK        -0.2672 
      8 C8         30.8162   23.7650    2.0151 C.3       12 UNK         0.0333 
      9 C9         30.3392   24.1483    3.4037 C.ar      12 UNK        -0.0807 
     10 C10        31.0750   25.0421    4.1828 C.ar      12 UNK        -0.0894 
     11 C11        30.6138   25.4359    5.4409 C.ar      12 UNK        -0.0804 
     12 C12        29.3970   24.9324    5.9160 C.ar      12 UNK        -0.0824 
     13 C13        28.6506   24.0382    5.1383 C.ar      12 UNK        -0.0762 
     14 C14        29.1372   23.6367    3.8923 C.ar      12 UNK        -0.0782 
     15 C15        27.2983   23.5252    5.6091 C.3       12 UNK         0.0230 
     16 S16        25.9496   24.1444    4.5473 S.3       12 UNK        -0.2608 
     17 C17        25.9554   25.9188    4.9650 C.3       12 UNK        -0.0989 
     18 CA         26.7006   26.8120    3.9271 C.3       5 UNK         0.0716 
     19 N          26.1693   26.7218    2.5532 N.am      5 UNK        -0.4135 
     20 C          24.9362   27.0724    2.1555 C.2       4 UNK         0.5031 
     21 O          24.0627   27.4741    2.9255 O.2       4 UNK        -0.5229 
     22 CA         24.6120   27.0331    0.6477 C.3       4 UNK         0.0329 
     23 CB         24.2982   28.4486    0.1335 C.3       4 UNK        -0.2001 
     24 N          25.6416   26.4466   -0.2180 N.am      4 UNK        -0.4303 
     25 C          25.8920   25.1383   -0.3388 C.2       3 UNK         0.5044 
     26 O          25.3876   24.2874    0.3938 O.2       3 UNK        -0.5152 
     27 CA         26.8341   24.6750   -1.4705 C.3       3 UNK         0.0319 
     28 CB         26.0169   24.1518   -2.6679 C.3       3 UNK        -0.2001 
     29 N          27.8611   25.6294   -1.9234 N.am      3 UNK        -0.4354 
     30 C          27.7261   26.8142   -2.5399 C.2       2 UNK         0.4964 
     31 O          26.6410   27.3626   -2.7356 O.2       2 UNK        -0.5047 
     32 CA         29.0352   27.5097   -2.9639 C.3       2 UNK         0.0288 
     33 CB         28.8096   28.9065   -3.5715 C.3       2 UNK        -0.2113 
     34 N          29.9136   27.6289   -1.8018 N.am      2 UNK        -0.4145 
     35 C          30.9146   26.7924   -1.5075 C.2       1 UNK         0.5006 
     36 O          31.3466   25.9362   -2.2858 O.2       1 UNK        -0.5103 
     37 C          26.8167   28.2755    4.4256 C.2       5 UNK         0.5055 
     38 O          26.7889   28.5154    5.6345 O.2       5 UNK        -0.5220 
     39 N          26.9497   29.2330    3.4990 N.am      6 UNK        -0.4450 
     40 CA         27.0543   30.6642    3.7812 C.3       6 UNK         0.0367 
     41 CB         25.6701   31.2733    4.0762 C.3       6 UNK        -0.1929 
     42 C          27.7403   31.3636    2.6077 C.2       6 UNK         0.5070 
     43 O          28.7560   32.0308    2.8061 O.2       6 UNK        -0.5237 
     44 N          27.2030   31.1570    1.3959 N.am      7 UNK        -0.4739 
     45 CA         27.7821   31.6288    0.1368 C.3       7 UNK         0.0276 
     46 CB         26.8401   31.2777   -1.0265 C.3       7 UNK        -0.1927 
     47 C          29.1771   31.0224   -0.0813 C.2       7 UNK         0.5013 
     48 O          29.2900   29.7992   -0.1953 O.2       7 UNK        -0.5193 
     49 N          30.2018   31.8870   -0.0750 N.am      8 UNK        -0.4253 
     50 CA         31.6322   31.5752   -0.1998 C.3       8 UNK         0.0242 
     51 CB         31.9429   31.0648   -1.6244 C.3       8 UNK        -0.2000 
     52 C          32.1807   30.6283    0.8916 C.2       8 UNK         0.4948 
     53 O          33.1987   29.9769    0.6549 O.2       8 UNK        -0.5275 
     54 N          31.4988   30.5438    2.0453 N.am      9 UNK        -0.4246 
     55 CA         31.8040   29.6169    3.1372 C.3       9 UNK         0.0261 
     56 CB         30.6894   29.6837    4.1929 C.3       9 UNK        -0.1959 
     57 C          33.1797   29.8774    3.7713 C.2       9 UNK         0.5033 
     58 O          33.4048   30.9661    4.3056 O.2       9 UNK        -0.5390 
     59 N          34.0566   28.8704    3.7133 N.am      10 UNK        -0.4215 
     60 CA         35.4238   28.9069    4.2313 C.3       10 UNK         0.0240 
     61 CB         36.3813   29.3654    3.1131 C.3       10 UNK        -0.1982 
     62 C          35.8204   27.5521    4.8443 C.2       10 UNK         0.4970 
     63 O          36.9741   27.1379    4.7136 O.2       10 UNK        -0.4916 
     64 N          34.8644   26.8787    5.4984 N.am      11 UNK        -0.4279 
     65 CA         35.0887   25.6287    6.2403 C.3       11 UNK         0.1003 
     66 C          35.8974   25.8285    7.5548 C.2       11 UNK         0.5709 
     67 N          36.4920   24.7664    8.0821 N.am      11 UNK        -0.7358 
     68 O          35.9769   26.9234    8.1104 O.2       11 UNK        -0.4999 
     69 C69        33.7708   24.8351    6.4556 C.3       12 UNK        -0.0954 
     70 S70        32.5064   25.6684    7.4832 S.3       12 UNK        -0.2268 
     71 C71        31.4112   26.4458    6.2536 C.3       12 UNK         0.0203 
     72 H72        35.7459   25.9634    0.8940 H         1 UNK         0.0888 
     73 H73        34.9360   24.5566    1.5885 H         1 UNK         0.0888 
     74 H74        34.9045   24.8206   -0.1572 H         1 UNK         0.0888 
     75 H75        32.9071   25.6079   -0.8664 H         1 UNK         0.3017 
     76 H76        31.6851   27.9157    0.1274 H         1 UNK         0.0873 
     77 H77        30.7863   26.5252    1.9700 H         1 UNK         0.0745 
     78 H78        29.5182   27.0113    0.9131 H         1 UNK         0.0745 
     79 H79        30.6930   22.6907    1.8713 H         1 UNK         0.0705 
     80 H80        31.8802   23.9690    1.8953 H         1 UNK         0.0705 
     81 H81        32.0007   25.4476    3.7987 H         1 UNK         0.1334 
     82 H82        29.0256   25.2514    6.8803 H         1 UNK         0.1417 
     83 H83        28.5555   22.9590    3.2816 H         1 UNK         0.1562 
     84 H84        27.1086   23.8032    6.6470 H         1 UNK         0.0748 
     85 H85        27.2998   22.4347    5.5792 H         1 UNK         0.0748 
     86 H86        26.4001   26.0268    5.9559 H         1 UNK         0.0940 
     87 H87        24.9200   26.2436    5.0770 H         1 UNK         0.0940 
     88 H88        27.7290   26.4535    3.8646 H         1 UNK         0.0703 
     89 H89        26.8056   26.3668    1.8545 H         1 UNK         0.3081 
     90 H90        23.7068   26.4315    0.5404 H         1 UNK         0.0719 
     91 H91        23.4744   28.8977    0.6903 H         1 UNK         0.0809 
     92 H92        25.1574   29.1095    0.2339 H         1 UNK         0.0809 
     93 H93        24.0053   28.4354   -0.9167 H         1 UNK         0.0809 
     94 H94        26.0482   27.0513   -0.9257 H         1 UNK         0.2990 
     95 H95        27.3905   23.8288   -1.0643 H         1 UNK         0.0690 
     96 H96        26.6640   23.7226   -3.4329 H         1 UNK         0.0788 
     97 H97        25.4255   24.9415   -3.1324 H         1 UNK         0.0788 
     98 H98        25.3234   23.3696   -2.3559 H         1 UNK         0.0788 
     99 H99        28.8089   25.3137   -1.7636 H         1 UNK         0.2993 
    100 H100       29.4972   26.8847   -3.7313 H         1 UNK         0.0949 
    101 H101       28.3334   29.5824   -2.8629 H         1 UNK         0.0767 
    102 H102       29.7520   29.3590   -3.8803 H         1 UNK         0.0767 
    103 H103       28.1705   28.8518   -4.4537 H         1 UNK         0.0767 
    104 H104       29.6391   28.3349   -1.1162 H         1 UNK         0.3013 
    105 H105       27.0373   28.9593    2.5311 H         1 UNK         0.3121 
    106 H106       27.6898   30.8061    4.6584 H         1 UNK         0.0774 
    107 H107       24.9653   31.0983    3.2627 H         1 UNK         0.0815 
    108 H108       25.2385   30.8517    4.9841 H         1 UNK         0.0815 
    109 H109       25.7412   32.3516    4.2244 H         1 UNK         0.0815 
    110 H110       26.3444   30.6337    1.3259 H         1 UNK         0.2987 
    111 H111       27.8642   32.7166    0.1926 H         1 UNK         0.0949 
    112 H112       25.8464   31.7008   -0.8784 H         1 UNK         0.0806 
    113 H113       27.2221   31.6765   -1.9671 H         1 UNK         0.0806 
    114 H114       26.7322   30.1999   -1.1529 H         1 UNK         0.0806 
    115 H115       29.9897   32.8638    0.0773 H         1 UNK         0.3010 
    116 H116       32.1618   32.5194   -0.0650 H         1 UNK         0.0829 
    117 H117       31.4991   30.0868   -1.8100 H         1 UNK         0.0813 
    118 H118       31.5677   31.7513   -2.3831 H         1 UNK         0.0813 
    119 H119       33.0177   30.9681   -1.7828 H         1 UNK         0.0813 
    120 H120       30.6864   31.1358    2.1714 H         1 UNK         0.3038 
    121 H121       31.7961   28.6106    2.7184 H         1 UNK         0.0769 
    122 H122       29.7517   29.3040    3.7917 H         1 UNK         0.0811 
    123 H123       30.5241   30.7041    4.5406 H         1 UNK         0.0811 
    124 H124       30.9304   29.0827    5.0684 H         1 UNK         0.0811 
    125 H125       33.8040   28.0322    3.1817 H         1 UNK         0.3204 
    126 H126       35.4827   29.6297    5.0477 H         1 UNK         0.0748 
    127 H127       36.3868   28.6610    2.2802 H         1 UNK         0.0771 
    128 H128       36.0937   30.3414    2.7217 H         1 UNK         0.0771 
    129 H129       37.4050   29.4538    3.4790 H         1 UNK         0.0771 
    130 H130       33.9591   27.3057    5.6110 H         1 UNK         0.2980 
    131 H131       35.7169   25.0056    5.6001 H         1 UNK         0.0545 
    132 H132       36.4307   23.8610    7.6430 H         1 UNK         0.3459 
    133 H133       37.0138   24.8729    8.9381 H         1 UNK         0.3459 
    134 H134       33.9908   23.8773    6.9298 H         1 UNK         0.0616 
    135 H135       33.3482   24.5707    5.4889 H         1 UNK         0.0616 
    136 H136       30.7249   27.1159    6.7735 H         1 UNK         0.0634 
    137 H137       32.0069   27.0747    5.5924 H         1 UNK         0.0634 
@<TRIPOS>BOND
     1    1    2 1    
     2    1   72 1    
     3    1   73 1    
     4    1   74 1    
     5    2    3 2    
     6    2    4 am   BACKBONE|DICT|INTERRES
     7    4    5 1    
     8    4   75 1    
     9    5    6 1    
    10    5   35 1    
    11    5   76 1    
    12    6    7 1    
    13    6   77 1    
    14    6   78 1    
    15    7    8 1    
    16    8    9 1    
    17    8   79 1    
    18    8   80 1    
    19    9   10 ar   
    20    9   14 ar   
    21   10   11 ar   
    22   10   81 1    
    23   11   12 ar   
    24   11   71 1    
    25   12   13 ar   
    26   12   82 1    
    27   13   14 ar   
    28   13   15 1    
    29   14   83 1    
    30   15   16 1    
    31   15   84 1    
    32   15   85 1    
    33   16   17 1    
    34   17   18 1    
    35   17   86 1    
    36   17   87 1    
    37   18   19 1    
    38   18   37 1    
    39   18   88 1    
    40   19   20 am   BACKBONE|DICT|INTERRES
    41   19   89 1    
    42   20   21 2    
    43   20   22 1    
    44   22   23 1    
    45   22   24 1    
    46   22   90 1    
    47   23   91 1    
    48   23   92 1    
    49   23   93 1    
    50   24   25 am   BACKBONE|DICT|INTERRES
    51   24   94 1    
    52   25   26 2    
    53   25   27 1    
    54   27   28 1    
    55   27   29 1    
    56   27   95 1    
    57   28   96 1    
    58   28   97 1    
    59   28   98 1    
    60   29   30 am   BACKBONE|DICT|INTERRES
    61   29   99 1    
    62   30   31 2    
    63   30   32 1    
    64   32   33 1    
    65   32   34 1    
    66   32  100 1    
    67   33  101 1    
    68   33  102 1    
    69   33  103 1    
    70   34   35 am   BACKBONE|DICT|INTERRES
    71   34  104 1    
    72   35   36 2    
    73   37   38 2    
    74   37   39 am   BACKBONE|DICT|INTERRES
    75   39   40 1    
    76   39  105 1    
    77   40   41 1    
    78   40   42 1    
    79   40  106 1    
    80   41  107 1    
    81   41  108 1    
    82   41  109 1    
    83   42   43 2    
    84   42   44 am   BACKBONE|DICT|INTERRES
    85   44   45 1    
    86   44  110 1    
    87   45   46 1    
    88   45   47 1    
    89   45  111 1    
    90   46  112 1    
    91   46  113 1    
    92   46  114 1    
    93   47   48 2    
    94   47   49 am   BACKBONE|DICT|INTERRES
    95   49   50 1    
    96   49  115 1    
    97   50   51 1    
    98   50   52 1    
    99   50  116 1    
   100   51  117 1    
   101   51  118 1    
   102   51  119 1    
   103   52   53 2    
   104   52   54 am   BACKBONE|DICT|INTERRES
   105   54   55 1    
   106   54  120 1    
   107   55   56 1    
   108   55   57 1    
   109   55  121 1    
   110   56  122 1    
   111   56  123 1    
   112   56  124 1    
   113   57   58 2    
   114   57   59 am   BACKBONE|DICT|INTERRES
   115   59   60 1    
   116   59  125 1    
   117   60   61 1    
   118   60   62 1    
   119   60  126 1    
   120   61  127 1    
   121   61  128 1    
   122   61  129 1    
   123   62   63 2    
   124   62   64 am   BACKBONE|DICT|INTERRES
   125   64   65 1    
   126   64  130 1    
   127   65   66 1    
   128   65   69 1    
   129   65  131 1    
   130   66   67 am   BACKBONE|DICT|INTERRES
   131   66   68 2    
   132   67  132 1    
   133   67  133 1    
   134   69   70 1    
   135   69  134 1    
   136   69  135 1    
   137   70   71 1    
   138   71  136 1    
   139   71  137 1    
@<TRIPOS>SUBSTRUCTURE
     1 UNK         1 GROUP             0       ****    0 ROOT    
