@<TRIPOS>MOLECULE
3R136
137   139    1
SMALL
USER_CHARGES


@<TRIPOS>ATOM
      1 CA         24.8857   19.6522    3.4499 C.3       0 UNK        -0.1979 
      2 C          25.7427   19.4488    2.2091 C.2       0 UNK         0.4864 
      3 O          25.4368   18.5807    1.3894 O.2       0 UNK        -0.5359 
      4 N          26.8168   20.2359    2.0706 N.am      1 UNK        -0.4318 
      5 CA         27.7059   20.2461    0.9055 C.3       1 UNK         0.0824 
      6 C6         29.0893   20.8504    1.2600 C.3       12 UNK        -0.0944 
      7 S7         29.0370   22.5906    1.8144 S.3       12 UNK        -0.2672 
      8 C8         30.5956   22.6707    2.7420 C.3       12 UNK         0.0333 
      9 C9         30.9375   24.1049    3.1053 C.ar      12 UNK        -0.0807 
     10 C10        31.6840   24.8889    2.2210 C.ar      12 UNK        -0.0894 
     11 C11        32.0086   26.2074    2.5472 C.ar      12 UNK        -0.0804 
     12 C12        31.6021   26.7318    3.7774 C.ar      12 UNK        -0.0824 
     13 C13        30.8263   25.9692    4.6550 C.ar      12 UNK        -0.0762 
     14 C14        30.5042   24.6506    4.3177 C.ar      12 UNK        -0.0782 
     15 C15        30.3002   26.5891    5.9430 C.3       12 UNK         0.0230 
     16 S16        29.1690   27.9862    5.6204 S.3       12 UNK        -0.2608 
     17 C17        27.8518   27.1945    4.6326 C.3       12 UNK        -0.0989 
     18 CA         28.0894   27.3598    3.1056 C.3       5 UNK         0.0716 
     19 N          27.4818   26.2869    2.3133 N.am      5 UNK        -0.4135 
     20 C          26.1722   26.0713    2.1179 C.2       4 UNK         0.5031 
     21 O          25.2810   26.6852    2.7070 O.2       4 UNK        -0.5229 
     22 CA         25.7864   24.9793    1.0956 C.3       4 UNK         0.0329 
     23 CB         24.4420   25.2752    0.3987 C.3       4 UNK        -0.2001 
     24 N          26.8187   24.6812    0.0931 N.am      4 UNK        -0.4303 
     25 C          27.3915   25.5234   -0.7829 C.2       3 UNK         0.5044 
     26 O          27.1359   26.7247   -0.8526 O.2       3 UNK        -0.5152 
     27 CA         28.4577   24.9336   -1.7245 C.3       3 UNK         0.0319 
     28 CB         29.8645   25.1954   -1.1612 C.3       3 UNK        -0.2001 
     29 N          28.2883   23.4956   -1.9552 N.am      3 UNK        -0.4354 
     30 C          27.3293   22.9598   -2.7261 C.2       2 UNK         0.4964 
     31 O          26.5408   23.6253   -3.3981 O.2       2 UNK        -0.5047 
     32 CA         27.2141   21.4226   -2.7393 C.3       2 UNK         0.0288 
     33 CB         28.0141   20.8338   -3.9129 C.3       2 UNK        -0.2113 
     34 N          27.6390   20.7773   -1.4904 N.am      2 UNK        -0.4145 
     35 C          27.0560   20.9650   -0.2969 C.2       1 UNK         0.5006 
     36 O          26.0890   21.7119   -0.1240 O.2       1 UNK        -0.5103 
     37 C          27.7073   28.7446    2.5377 C.2       5 UNK         0.5055 
     38 O          26.9141   29.4754    3.1349 O.2       5 UNK        -0.5220 
     39 N          28.2477   29.0413    1.3466 N.am      6 UNK        -0.4450 
     40 CA         27.9181   30.2064    0.5212 C.3       6 UNK         0.0367 
     41 CB         28.6532   30.0931   -0.8247 C.3       6 UNK        -0.1929 
     42 C          28.2089   31.5711    1.1695 C.2       6 UNK         0.5070 
     43 O          27.5096   32.5364    0.8584 O.2       6 UNK        -0.5237 
     44 N          29.2175   31.6403    2.0456 N.am      7 UNK        -0.4739 
     45 CA         29.5922   32.8386    2.7917 C.3       7 UNK         0.0276 
     46 CB         30.3685   33.8199    1.8880 C.3       7 UNK        -0.1927 
     47 C          30.4096   32.4466    4.0275 C.2       7 UNK         0.5013 
     48 O          30.8947   31.3135    4.1193 O.2       7 UNK        -0.5193 
     49 N          30.5580   33.4114    4.9435 N.am      8 UNK        -0.4253 
     50 CA         31.3666   33.3167    6.1601 C.3       8 UNK         0.0242 
     51 CB         31.0998   34.5622    7.0234 C.3       8 UNK        -0.2000 
     52 C          32.8714   33.1747    5.8664 C.2       8 UNK         0.4948 
     53 O          33.3150   33.4373    4.7451 O.2       8 UNK        -0.5275 
     54 N          33.6251   32.7599    6.8960 N.am      9 UNK        -0.4246 
     55 CA         35.0723   32.4973    6.8752 C.3       9 UNK         0.0261 
     56 CB         35.8663   33.8082    6.6843 C.3       9 UNK        -0.1959 
     57 C          35.4634   31.4028    5.8604 C.2       9 UNK         0.5033 
     58 O          36.5085   31.5061    5.2157 O.2       9 UNK        -0.5390 
     59 N          34.5985   30.3821    5.7483 N.am      10 UNK        -0.4215 
     60 CA         34.6473   29.2638    4.8034 C.3       10 UNK         0.0240 
     61 CB         35.8535   28.3435    5.0905 C.3       10 UNK        -0.1982 
     62 C          34.5830   29.7436    3.3414 C.2       10 UNK         0.4970 
     63 O          35.5364   29.5434    2.5860 O.2       10 UNK        -0.4916 
     64 N          33.4443   30.3470    2.9715 N.am      11 UNK        -0.4279 
     65 CA         33.1376   30.8349    1.6160 C.3       11 UNK         0.1003 
     66 C          34.0323   32.0297    1.1710 C.2       11 UNK         0.5709 
     67 N          34.3674   32.9524    2.0651 N.am      11 UNK        -0.7358 
     68 O          34.4134   32.1423    0.0079 O.2       11 UNK        -0.4999 
     69 C69        33.0309   29.6967    0.5555 C.3       12 UNK        -0.0954 
     70 S70        31.7564   28.4625    0.9821 S.3       12 UNK        -0.2268 
     71 C71        32.7818   27.0775    1.5711 C.3       12 UNK         0.0203 
     72 H72        24.8379   18.7304    4.0289 H         1 UNK         0.0888 
     73 H73        25.2814   20.4371    4.0943 H         1 UNK         0.0888 
     74 H74        23.8715   19.9287    3.1632 H         1 UNK         0.0888 
     75 H75        27.0032   20.9532    2.7566 H         1 UNK         0.3017 
     76 H76        27.8674   19.2084    0.6048 H         1 UNK         0.0873 
     77 H77        29.7724   20.7798    0.4116 H         1 UNK         0.0745 
     78 H78        29.5451   20.2484    2.0481 H         1 UNK         0.0745 
     79 H79        30.5160   22.0584    3.6416 H         1 UNK         0.0705 
     80 H80        31.3991   22.2387    2.1430 H         1 UNK         0.0705 
     81 H81        32.0040   24.4731    1.2753 H         1 UNK         0.1334 
     82 H82        31.8323   27.7586    4.0238 H         1 UNK         0.1417 
     83 H83        29.9047   24.0515    4.9897 H         1 UNK         0.1562 
     84 H84        31.1422   26.9455    6.5378 H         1 UNK         0.0748 
     85 H85        29.7845   25.8463    6.5536 H         1 UNK         0.0748 
     86 H86        26.8814   27.5946    4.9318 H         1 UNK         0.0940 
     87 H87        27.8208   26.1361    4.8952 H         1 UNK         0.0940 
     88 H88        29.1551   27.2538    2.9164 H         1 UNK         0.0703 
     89 H89        28.1267   25.7061    1.7976 H         1 UNK         0.3081 
     90 H90        25.6619   24.0623    1.6736 H         1 UNK         0.0719 
     91 H91        24.4758   26.2113   -0.1597 H         1 UNK         0.0809 
     92 H92        24.1747   24.4787   -0.2960 H         1 UNK         0.0809 
     93 H93        23.6306   25.3558    1.1230 H         1 UNK         0.0809 
     94 H94        27.0818   23.7048    0.0435 H         1 UNK         0.2990 
     95 H95        28.3726   25.4506   -2.6828 H         1 UNK         0.0690 
     96 H96        30.6380   24.8524   -1.8484 H         1 UNK         0.0788 
     97 H97        30.0163   24.6923   -0.2066 H         1 UNK         0.0788 
     98 H98        30.0297   26.2615   -0.9968 H         1 UNK         0.0788 
     99 H99        28.9062   22.8757   -1.4524 H         1 UNK         0.2993 
    100 H100       26.1591   21.1826   -2.8898 H         1 UNK         0.0949 
    101 H101       27.7009   21.2766   -4.8597 H         1 UNK         0.0767 
    102 H102       29.0840   21.0171   -3.8057 H         1 UNK         0.0767 
    103 H103       27.8631   19.7573   -3.9965 H         1 UNK         0.0767 
    104 H104       28.4299   20.1521   -1.5547 H         1 UNK         0.3013 
    105 H105       28.8797   28.3738    0.9285 H         1 UNK         0.3121 
    106 H106       26.8446   30.1646    0.3257 H         1 UNK         0.0774 
    107 H107       28.3902   29.1729   -1.3467 H         1 UNK         0.0815 
    108 H108       28.3908   30.9224   -1.4830 H         1 UNK         0.0815 
    109 H109       29.7361   30.1107   -0.6964 H         1 UNK         0.0815 
    110 H110       29.7200   30.8005    2.3064 H         1 UNK         0.2987 
    111 H111       28.6790   33.3231    3.1453 H         1 UNK         0.0949 
    112 H112       30.6672   34.7137    2.4368 H         1 UNK         0.0806 
    113 H113       31.2754   33.3743    1.4832 H         1 UNK         0.0806 
    114 H114       29.7609   34.1540    1.0471 H         1 UNK         0.0806 
    115 H115       30.1492   34.3149    4.7555 H         1 UNK         0.3010 
    116 H116       31.0413   32.4287    6.7066 H         1 UNK         0.0829 
    117 H117       30.0412   34.6586    7.2659 H         1 UNK         0.0813 
    118 H118       31.6400   34.5140    7.9698 H         1 UNK         0.0813 
    119 H119       31.4130   35.4768    6.5178 H         1 UNK         0.0813 
    120 H120       33.1660   32.5831    7.7796 H         1 UNK         0.3038 
    121 H121       35.3279   32.1006    7.8590 H         1 UNK         0.0769 
    122 H122       35.7144   34.2332    5.6915 H         1 UNK         0.0811 
    123 H123       36.9370   33.6375    6.8028 H         1 UNK         0.0811 
    124 H124       35.5759   34.5591    7.4188 H         1 UNK         0.0811 
    125 H125       33.7736   30.4195    6.3304 H         1 UNK         0.3204 
    126 H126       33.7472   28.6745    4.9796 H         1 UNK         0.0748 
    127 H127       35.8358   27.4680    4.4400 H         1 UNK         0.0771 
    128 H128       36.8046   28.8504    4.9249 H         1 UNK         0.0771 
    129 H129       35.8409   27.9831    6.1191 H         1 UNK         0.0771 
    130 H130       32.7127   30.5184    3.6531 H         1 UNK         0.2980 
    131 H131       32.1405   31.2638    1.6889 H         1 UNK         0.0545 
    132 H132       34.0223   32.9182    3.0207 H         1 UNK         0.3459 
    133 H133       34.9446   33.7248    1.7755 H         1 UNK         0.3459 
    134 H134       32.7502   30.1123   -0.4137 H         1 UNK         0.0616 
    135 H135       33.9936   29.2070    0.4029 H         1 UNK         0.0616 
    136 H136       33.1204   26.5000    0.7097 H         1 UNK         0.0634 
    137 H137       33.6792   27.4432    2.0662 H         1 UNK         0.0634 
@<TRIPOS>BOND
     1    1    2 1    
     2    1   72 1    
     3    1   73 1    
     4    1   74 1    
     5    2    3 2    
     6    2    4 am   BACKBONE|DICT|INTERRES
     7    4    5 1    
     8    4   75 1    
     9    5    6 1    
    10    5   35 1    
    11    5   76 1    
    12    6    7 1    
    13    6   77 1    
    14    6   78 1    
    15    7    8 1    
    16    8    9 1    
    17    8   79 1    
    18    8   80 1    
    19    9   10 ar   
    20    9   14 ar   
    21   10   11 ar   
    22   10   81 1    
    23   11   12 ar   
    24   11   71 1    
    25   12   13 ar   
    26   12   82 1    
    27   13   14 ar   
    28   13   15 1    
    29   14   83 1    
    30   15   16 1    
    31   15   84 1    
    32   15   85 1    
    33   16   17 1    
    34   17   18 1    
    35   17   86 1    
    36   17   87 1    
    37   18   19 1    
    38   18   37 1    
    39   18   88 1    
    40   19   20 am   BACKBONE|DICT|INTERRES
    41   19   89 1    
    42   20   21 2    
    43   20   22 1    
    44   22   23 1    
    45   22   24 1    
    46   22   90 1    
    47   23   91 1    
    48   23   92 1    
    49   23   93 1    
    50   24   25 am   BACKBONE|DICT|INTERRES
    51   24   94 1    
    52   25   26 2    
    53   25   27 1    
    54   27   28 1    
    55   27   29 1    
    56   27   95 1    
    57   28   96 1    
    58   28   97 1    
    59   28   98 1    
    60   29   30 am   BACKBONE|DICT|INTERRES
    61   29   99 1    
    62   30   31 2    
    63   30   32 1    
    64   32   33 1    
    65   32   34 1    
    66   32  100 1    
    67   33  101 1    
    68   33  102 1    
    69   33  103 1    
    70   34   35 am   BACKBONE|DICT|INTERRES
    71   34  104 1    
    72   35   36 2    
    73   37   38 2    
    74   37   39 am   BACKBONE|DICT|INTERRES
    75   39   40 1    
    76   39  105 1    
    77   40   41 1    
    78   40   42 1    
    79   40  106 1    
    80   41  107 1    
    81   41  108 1    
    82   41  109 1    
    83   42   43 2    
    84   42   44 am   BACKBONE|DICT|INTERRES
    85   44   45 1    
    86   44  110 1    
    87   45   46 1    
    88   45   47 1    
    89   45  111 1    
    90   46  112 1    
    91   46  113 1    
    92   46  114 1    
    93   47   48 2    
    94   47   49 am   BACKBONE|DICT|INTERRES
    95   49   50 1    
    96   49  115 1    
    97   50   51 1    
    98   50   52 1    
    99   50  116 1    
   100   51  117 1    
   101   51  118 1    
   102   51  119 1    
   103   52   53 2    
   104   52   54 am   BACKBONE|DICT|INTERRES
   105   54   55 1    
   106   54  120 1    
   107   55   56 1    
   108   55   57 1    
   109   55  121 1    
   110   56  122 1    
   111   56  123 1    
   112   56  124 1    
   113   57   58 2    
   114   57   59 am   BACKBONE|DICT|INTERRES
   115   59   60 1    
   116   59  125 1    
   117   60   61 1    
   118   60   62 1    
   119   60  126 1    
   120   61  127 1    
   121   61  128 1    
   122   61  129 1    
   123   62   63 2    
   124   62   64 am   BACKBONE|DICT|INTERRES
   125   64   65 1    
   126   64  130 1    
   127   65   66 1    
   128   65   69 1    
   129   65  131 1    
   130   66   67 am   BACKBONE|DICT|INTERRES
   131   66   68 2    
   132   67  132 1    
   133   67  133 1    
   134   69   70 1    
   135   69  134 1    
   136   69  135 1    
   137   70   71 1    
   138   71  136 1    
   139   71  137 1    
@<TRIPOS>SUBSTRUCTURE
     1 UNK         1 GROUP             0       ****    0 ROOT    
