@<TRIPOS>MOLECULE
3R136
137   139    1
SMALL
USER_CHARGES


@<TRIPOS>ATOM
      1 CA         24.2654   20.3799    2.8714 C.3       0 UNK        -0.1979 
      2 C          25.7084   20.3621    2.3886 C.2       0 UNK         0.4864 
      3 O          26.5190   19.5951    2.9104 O.2       0 UNK        -0.5359 
      4 N          26.0335   21.1980    1.3977 N.am      1 UNK        -0.4318 
      5 CA         27.3528   21.3154    0.7838 C.3       1 UNK         0.0824 
      6 C6         28.3069   22.1961    1.6338 C.3       12 UNK        -0.0944 
      7 S7         30.0435   22.0900    1.0804 S.3       12 UNK        -0.2672 
      8 C8         30.9342   22.0213    2.6634 C.3       12 UNK         0.0333 
      9 C9         31.0391   23.3969    3.3044 C.ar      12 UNK        -0.0807 
     10 C10        32.1170   24.2303    2.9947 C.ar      12 UNK        -0.0894 
     11 C11        32.2492   25.4780    3.6104 C.ar      12 UNK        -0.0804 
     12 C12        31.2864   25.8985    4.5313 C.ar      12 UNK        -0.0824 
     13 C13        30.1911   25.0841    4.8325 C.ar      12 UNK        -0.0762 
     14 C14        30.0780   23.8302    4.2225 C.ar      12 UNK        -0.0782 
     15 C15        29.1424   25.5352    5.8382 C.3       12 UNK         0.0230 
     16 S16        27.5415   25.8604    5.0363 S.3       12 UNK        -0.2608 
     17 C17        27.6978   27.6003    4.4983 C.3       12 UNK        -0.0989 
     18 CA         28.3128   27.7990    3.0816 C.3       5 UNK         0.0716 
     19 N          27.7618   26.8941    2.0648 N.am      5 UNK        -0.4135 
     20 C          26.5091   26.8779    1.5839 C.2       4 UNK         0.5031 
     21 O          25.5898   27.5536    2.0490 O.2       4 UNK        -0.5229 
     22 CA         26.2416   25.9885    0.3489 C.3       4 UNK         0.0329 
     23 CB         25.2941   26.6777   -0.6548 C.3       4 UNK        -0.2001 
     24 N          27.4431   25.5075   -0.3529 N.am      4 UNK        -0.4303 
     25 C          28.4444   26.2317   -0.8829 C.2       3 UNK         0.5044 
     26 O          28.5141   27.4585   -0.8025 O.2       3 UNK        -0.5152 
     27 CA         29.5969   25.4636   -1.5576 C.3       3 UNK         0.0319 
     28 CB         30.8494   25.5058   -0.6646 C.3       3 UNK        -0.2001 
     29 N          29.2663   24.0654   -1.8464 N.am      3 UNK        -0.4354 
     30 C          28.4938   23.6552   -2.8643 C.2       2 UNK         0.4964 
     31 O          28.0530   24.4048   -3.7354 O.2       2 UNK        -0.5047 
     32 CA         28.1200   22.1603   -2.8942 C.3       2 UNK         0.0288 
     33 CB         29.1208   21.3703   -3.7528 C.3       2 UNK        -0.2113 
     34 N          28.0462   21.5607   -1.5566 N.am      2 UNK        -0.4145 
     35 C          27.1494   21.9022   -0.6207 C.2       1 UNK         0.5006 
     36 O          26.2301   22.7030   -0.8121 O.2       1 UNK        -0.5103 
     37 C          28.2553   29.2852    2.6349 C.2       5 UNK         0.5055 
     38 O          28.2367   30.1696    3.4938 O.2       5 UNK        -0.5220 
     39 N          28.1981   29.5401    1.3147 N.am      6 UNK        -0.4450 
     40 CA         27.7812   30.8111    0.7076 C.3       6 UNK         0.0367 
     41 CB         27.7388   30.6579   -0.8208 C.3       6 UNK        -0.1929 
     42 C          28.6147   32.0406    1.0975 C.2       6 UNK         0.5070 
     43 O          28.0546   33.1264    1.2486 O.2       6 UNK        -0.5237 
     44 N          29.9246   31.8554    1.2946 N.am      7 UNK        -0.4739 
     45 CA         30.8677   32.8979    1.7126 C.3       7 UNK         0.0276 
     46 CB         32.2667   32.5235    1.1912 C.3       7 UNK        -0.1927 
     47 C          30.8517   33.1247    3.2392 C.2       7 UNK         0.5013 
     48 O          31.9158   33.2260    3.8497 O.2       7 UNK        -0.5193 
     49 N          29.6536   33.1449    3.8453 N.am      8 UNK        -0.4253 
     50 CA         29.3886   33.2149    5.2921 C.3       8 UNK         0.0242 
     51 CB         29.6924   34.6307    5.8256 C.3       8 UNK        -0.2000 
     52 C          30.1229   32.1086    6.0803 C.2       8 UNK         0.4948 
     53 O          30.6903   32.3721    7.1414 O.2       8 UNK        -0.5275 
     54 N          30.1467   30.9034    5.4926 N.am      9 UNK        -0.4246 
     55 CA         30.8964   29.7040    5.8833 C.3       9 UNK         0.0261 
     56 CB         30.4403   29.1886    7.2639 C.3       9 UNK        -0.1959 
     57 C          32.4356   29.8158    5.7983 C.2       9 UNK         0.5033 
     58 O          33.1087   28.8238    6.0807 O.2       9 UNK        -0.5390 
     59 N          32.9836   30.9685    5.3915 N.am      10 UNK        -0.4215 
     60 CA         34.4184   31.2236    5.2685 C.3       10 UNK         0.0240 
     61 CB         34.7322   32.6017    5.8818 C.3       10 UNK        -0.1982 
     62 C          34.8265   31.1232    3.7913 C.2       10 UNK         0.4970 
     63 O          35.1735   32.1316    3.1738 O.2       10 UNK        -0.4916 
     64 N          34.7390   29.9033    3.2467 N.am      11 UNK        -0.4279 
     65 CA         35.0685   29.5602    1.8538 C.3       11 UNK         0.1003 
     66 C          36.5258   29.9275    1.4545 C.2       11 UNK         0.5709 
     67 N          36.7372   30.3965    0.2320 N.am      11 UNK        -0.7358 
     68 O          37.4665   29.7450    2.2259 O.2       11 UNK        -0.4999 
     69 C69        34.8021   28.0629    1.5537 C.3       12 UNK        -0.0954 
     70 S70        33.1054   27.5168    1.9509 S.3       12 UNK        -0.2268 
     71 C71        33.4527   26.3515    3.3030 C.3       12 UNK         0.0203 
     72 H72        23.8140   19.3966    2.7418 H         1 UNK         0.0888 
     73 H73        24.2273   20.6363    3.9297 H         1 UNK         0.0888 
     74 H74        23.6620   21.1048    2.3253 H         1 UNK         0.0888 
     75 H75        25.3326   21.7876    0.9643 H         1 UNK         0.3017 
     76 H76        27.7728   20.3122    0.6799 H         1 UNK         0.0873 
     77 H77        27.9933   23.2419    1.6366 H         1 UNK         0.0745 
     78 H78        28.2581   21.8721    2.6739 H         1 UNK         0.0745 
     79 H79        30.4498   21.3142    3.3386 H         1 UNK         0.0705 
     80 H80        31.9342   21.6246    2.4820 H         1 UNK         0.0705 
     81 H81        32.8623   23.9007    2.2834 H         1 UNK         0.1334 
     82 H82        31.4018   26.8537    5.0204 H         1 UNK         0.1417 
     83 H83        29.2397   23.1925    4.4675 H         1 UNK         0.1562 
     84 H84        29.4717   26.4161    6.3901 H         1 UNK         0.0748 
     85 H85        29.0057   24.7475    6.5805 H         1 UNK         0.0748 
     86 H86        28.2694   28.1513    5.2457 H         1 UNK         0.0940 
     87 H87        26.6941   28.0286    4.5284 H         1 UNK         0.0940 
     88 H88        29.3735   27.5547    3.1455 H         1 UNK         0.0703 
     89 H89        28.4340   26.2886    1.6185 H         1 UNK         0.3081 
     90 H90        25.7358   25.0986    0.7263 H         1 UNK         0.0719 
     91 H91        25.7189   27.6062   -1.0376 H         1 UNK         0.0809 
     92 H92        25.0818   26.0300   -1.5055 H         1 UNK         0.0809 
     93 H93        24.3375   26.9231   -0.1920 H         1 UNK         0.0809 
     94 H94        27.4640   24.5076   -0.5045 H         1 UNK         0.2990 
     95 H95        29.8262   25.9722   -2.4963 H         1 UNK         0.0690 
     96 H96        31.6923   25.0009   -1.1365 H         1 UNK         0.0788 
     97 H97        30.6766   25.0346    0.3040 H         1 UNK         0.0788 
     98 H98        31.1585   26.5344   -0.4723 H         1 UNK         0.0788 
     99 H99        29.6046   23.3762   -1.1884 H         1 UNK         0.2993 
    100 H100       27.1322   22.0800   -3.3538 H         1 UNK         0.0949 
    101 H101       29.1783   21.7813   -4.7618 H         1 UNK         0.0767 
    102 H102       30.1267   21.3984   -3.3314 H         1 UNK         0.0767 
    103 H103       28.8244   20.3253   -3.8473 H         1 UNK         0.0767 
    104 H104       28.7788   20.9089   -1.3118 H         1 UNK         0.3013 
    105 H105       28.2742   28.7565    0.6709 H         1 UNK         0.3121 
    106 H106       26.7623   31.0009    1.0516 H         1 UNK         0.0774 
    107 H107       28.7173   30.3976   -1.2264 H         1 UNK         0.0815 
    108 H108       27.4205   31.5845   -1.3008 H         1 UNK         0.0815 
    109 H109       27.0356   29.8813   -1.1219 H         1 UNK         0.0815 
    110 H110       30.2933   30.9218    1.1844 H         1 UNK         0.2987 
    111 H111       30.5827   33.8455    1.2500 H         1 UNK         0.0949 
    112 H112       32.6158   31.5920    1.6356 H         1 UNK         0.0806 
    113 H113       32.2709   32.4039    0.1078 H         1 UNK         0.0806 
    114 H114       32.9995   33.2946    1.4335 H         1 UNK         0.0806 
    115 H115       28.8404   33.0441    3.2481 H         1 UNK         0.3010 
    116 H116       28.3217   33.0279    5.4232 H         1 UNK         0.0829 
    117 H117       30.7552   34.8671    5.7605 H         1 UNK         0.0813 
    118 H118       29.1451   35.3907    5.2680 H         1 UNK         0.0813 
    119 H119       29.4014   34.7256    6.8724 H         1 UNK         0.0813 
    120 H120       29.5841   30.7978    4.6499 H         1 UNK         0.3038 
    121 H121       30.6184   28.9548    5.1433 H         1 UNK         0.0769 
    122 H122       30.7292   29.8691    8.0652 H         1 UNK         0.0811 
    123 H123       30.8888   28.2204    7.4893 H         1 UNK         0.0811 
    124 H124       29.3587   29.0622    7.3064 H         1 UNK         0.0811 
    125 H125       32.3821   31.7316    5.0933 H         1 UNK         0.3204 
    126 H126       34.9930   30.4780    5.8222 H         1 UNK         0.0748 
    127 H127       35.7971   32.8269    5.8127 H         1 UNK         0.0771 
    128 H128       34.1938   33.4038    5.3750 H         1 UNK         0.0771 
    129 H129       34.4605   32.6344    6.9370 H         1 UNK         0.0771 
    130 H130       34.4342   29.1379    3.8298 H         1 UNK         0.2980 
    131 H131       34.3983   30.1473    1.2248 H         1 UNK         0.0545 
    132 H132       37.6783   30.6237   -0.0484 H         1 UNK         0.3459 
    133 H133       35.9756   30.5359   -0.4135 H         1 UNK         0.3459 
    134 H134       34.9621   27.8611    0.4930 H         1 UNK         0.0616 
    135 H135       35.5232   27.4396    2.0857 H         1 UNK         0.0616 
    136 H136       34.2984   25.7173    3.0323 H         1 UNK         0.0634 
    137 H137       33.7559   26.9055    4.1922 H         1 UNK         0.0634 
@<TRIPOS>BOND
     1    1    2 1    
     2    1   72 1    
     3    1   73 1    
     4    1   74 1    
     5    2    3 2    
     6    2    4 am   BACKBONE|DICT|INTERRES
     7    4    5 1    
     8    4   75 1    
     9    5    6 1    
    10    5   35 1    
    11    5   76 1    
    12    6    7 1    
    13    6   77 1    
    14    6   78 1    
    15    7    8 1    
    16    8    9 1    
    17    8   79 1    
    18    8   80 1    
    19    9   10 ar   
    20    9   14 ar   
    21   10   11 ar   
    22   10   81 1    
    23   11   12 ar   
    24   11   71 1    
    25   12   13 ar   
    26   12   82 1    
    27   13   14 ar   
    28   13   15 1    
    29   14   83 1    
    30   15   16 1    
    31   15   84 1    
    32   15   85 1    
    33   16   17 1    
    34   17   18 1    
    35   17   86 1    
    36   17   87 1    
    37   18   19 1    
    38   18   37 1    
    39   18   88 1    
    40   19   20 am   BACKBONE|DICT|INTERRES
    41   19   89 1    
    42   20   21 2    
    43   20   22 1    
    44   22   23 1    
    45   22   24 1    
    46   22   90 1    
    47   23   91 1    
    48   23   92 1    
    49   23   93 1    
    50   24   25 am   BACKBONE|DICT|INTERRES
    51   24   94 1    
    52   25   26 2    
    53   25   27 1    
    54   27   28 1    
    55   27   29 1    
    56   27   95 1    
    57   28   96 1    
    58   28   97 1    
    59   28   98 1    
    60   29   30 am   BACKBONE|DICT|INTERRES
    61   29   99 1    
    62   30   31 2    
    63   30   32 1    
    64   32   33 1    
    65   32   34 1    
    66   32  100 1    
    67   33  101 1    
    68   33  102 1    
    69   33  103 1    
    70   34   35 am   BACKBONE|DICT|INTERRES
    71   34  104 1    
    72   35   36 2    
    73   37   38 2    
    74   37   39 am   BACKBONE|DICT|INTERRES
    75   39   40 1    
    76   39  105 1    
    77   40   41 1    
    78   40   42 1    
    79   40  106 1    
    80   41  107 1    
    81   41  108 1    
    82   41  109 1    
    83   42   43 2    
    84   42   44 am   BACKBONE|DICT|INTERRES
    85   44   45 1    
    86   44  110 1    
    87   45   46 1    
    88   45   47 1    
    89   45  111 1    
    90   46  112 1    
    91   46  113 1    
    92   46  114 1    
    93   47   48 2    
    94   47   49 am   BACKBONE|DICT|INTERRES
    95   49   50 1    
    96   49  115 1    
    97   50   51 1    
    98   50   52 1    
    99   50  116 1    
   100   51  117 1    
   101   51  118 1    
   102   51  119 1    
   103   52   53 2    
   104   52   54 am   BACKBONE|DICT|INTERRES
   105   54   55 1    
   106   54  120 1    
   107   55   56 1    
   108   55   57 1    
   109   55  121 1    
   110   56  122 1    
   111   56  123 1    
   112   56  124 1    
   113   57   58 2    
   114   57   59 am   BACKBONE|DICT|INTERRES
   115   59   60 1    
   116   59  125 1    
   117   60   61 1    
   118   60   62 1    
   119   60  126 1    
   120   61  127 1    
   121   61  128 1    
   122   61  129 1    
   123   62   63 2    
   124   62   64 am   BACKBONE|DICT|INTERRES
   125   64   65 1    
   126   64  130 1    
   127   65   66 1    
   128   65   69 1    
   129   65  131 1    
   130   66   67 am   BACKBONE|DICT|INTERRES
   131   66   68 2    
   132   67  132 1    
   133   67  133 1    
   134   69   70 1    
   135   69  134 1    
   136   69  135 1    
   137   70   71 1    
   138   71  136 1    
   139   71  137 1    
@<TRIPOS>SUBSTRUCTURE
     1 UNK         1 GROUP             0       ****    0 ROOT    
