@<TRIPOS>MOLECULE
3R136
137   139    1
SMALL
USER_CHARGES


@<TRIPOS>ATOM
      1 CA         29.8544   24.7136   -5.2792 C.3       0 UNK        -0.1979 
      2 C          29.3091   25.2991   -3.9852 C.2       0 UNK         0.4864 
      3 O          28.7765   26.4092   -3.9942 O.2       0 UNK        -0.5359 
      4 N          29.4395   24.5617   -2.8728 N.am      1 UNK        -0.4318 
      5 CA         28.9664   24.9674   -1.5440 C.3       1 UNK         0.0824 
      6 C6         29.6160   24.1064   -0.4305 C.3       12 UNK        -0.0944 
      7 S7         29.5874   24.9715    1.1659 S.3       12 UNK        -0.2672 
      8 C8         30.6006   23.8915    2.2214 C.3       12 UNK         0.0333 
      9 C9         30.9636   24.6470    3.4885 C.ar      12 UNK        -0.0807 
     10 C10        32.2067   25.2752    3.6004 C.ar      12 UNK        -0.0894 
     11 C11        32.4945   26.0944    4.6951 C.ar      12 UNK        -0.0804 
     12 C12        31.5128   26.2959    5.6727 C.ar      12 UNK        -0.0824 
     13 C13        30.2692   25.6639    5.5792 C.ar      12 UNK        -0.0762 
     14 C14        30.0179   24.8038    4.5054 C.ar      12 UNK        -0.0782 
     15 C15        29.1916   25.9499    6.6203 C.3       12 UNK         0.0230 
     16 S16        27.5856   26.4327    5.8910 S.3       12 UNK        -0.2608 
     17 C17        28.0200   27.8618    4.8336 C.3       12 UNK        -0.0989 
     18 CA         28.0420   27.4883    3.3238 C.3       5 UNK         0.0716 
     19 N          26.8004   26.8795    2.8278 N.am      5 UNK        -0.4135 
     20 C          25.6005   27.4728    2.7438 C.2       4 UNK         0.5031 
     21 O          25.3614   28.6030    3.1714 O.2       4 UNK        -0.5229 
     22 CA         24.4807   26.7011    2.0255 C.3       4 UNK         0.0329 
     23 CB         24.0067   27.4798    0.7850 C.3       4 UNK        -0.2001 
     24 N          24.9058   25.3701    1.5876 N.am      4 UNK        -0.4303 
     25 C          24.5718   24.2134    2.1776 C.2       3 UNK         0.5044 
     26 O          23.9218   24.1471    3.2220 O.2       3 UNK        -0.5152 
     27 CA         25.0476   22.9102    1.4934 C.3       3 UNK         0.0319 
     28 CB         24.0445   21.7502    1.6685 C.3       3 UNK        -0.2001 
     29 N          25.4098   23.0835    0.0787 N.am      3 UNK        -0.4354 
     30 C          24.6214   23.5052   -0.9249 C.2       2 UNK         0.4964 
     31 O          23.4047   23.6632   -0.8174 O.2       2 UNK        -0.5047 
     32 CA         25.3129   23.8484   -2.2634 C.3       2 UNK         0.0288 
     33 CB         24.6515   25.0597   -2.9559 C.3       2 UNK        -0.2113 
     34 N          26.7677   24.0577   -2.1706 N.am      2 UNK        -0.4145 
     35 C          27.4249   24.9657   -1.4272 C.2       1 UNK         0.5006 
     36 O          26.8741   25.7507   -0.6493 O.2       1 UNK        -0.5103 
     37 C          28.5151   28.6289    2.3963 C.2       5 UNK         0.5055 
     38 O          29.0546   29.6301    2.8663 O.2       5 UNK        -0.5220 
     39 N          28.2943   28.4563    1.0831 N.am      6 UNK        -0.4450 
     40 CA         28.6782   29.4151    0.0466 C.3       6 UNK         0.0367 
     41 CB         27.8533   29.1424   -1.2218 C.3       6 UNK        -0.1929 
     42 C          30.1827   29.3844   -0.2715 C.2       6 UNK         0.5070 
     43 O          30.7170   30.3892   -0.7428 O.2       6 UNK        -0.5237 
     44 N          30.8396   28.2424   -0.0261 N.am      7 UNK        -0.4739 
     45 CA         32.2753   28.0618   -0.2346 C.3       7 UNK         0.0276 
     46 CB         32.5974   26.5604   -0.2738 C.3       7 UNK        -0.1927 
     47 C          33.0913   28.7604    0.8639 C.2       7 UNK         0.5013 
     48 O          32.6645   28.7859    2.0213 O.2       7 UNK        -0.5193 
     49 N          34.2558   29.3011    0.4724 N.am      8 UNK        -0.4253 
     50 CA         35.2847   29.9260    1.3196 C.3       8 UNK         0.0242 
     51 CB         36.0805   28.8317    2.0605 C.3       8 UNK        -0.2000 
     52 C          34.7582   31.0203    2.2730 C.2       8 UNK         0.4948 
     53 O          35.2674   31.1579    3.3869 O.2       8 UNK        -0.5275 
     54 N          33.7198   31.7508    1.8350 N.am      9 UNK        -0.4246 
     55 CA         32.9824   32.7796    2.5823 C.3       9 UNK         0.0261 
     56 CB         33.8423   34.0537    2.7260 C.3       9 UNK        -0.1959 
     57 C          32.4263   32.2804    3.9351 C.2       9 UNK         0.5033 
     58 O          32.4034   33.0434    4.9024 O.2       9 UNK        -0.5390 
     59 N          32.0197   31.0017    3.9805 N.am      10 UNK        -0.4215 
     60 CA         31.5476   30.2518    5.1511 C.3       10 UNK         0.0240 
     61 CB         30.3068   30.9087    5.7966 C.3       10 UNK        -0.1982 
     62 C          32.6426   29.9259    6.1878 C.2       10 UNK         0.4970 
     63 O          32.2940   29.4416    7.2656 O.2       10 UNK        -0.4916 
     64 N          33.9221   30.1344    5.8319 N.am      11 UNK        -0.4279 
     65 CA         35.1423   29.7635    6.5706 C.3       11 UNK         0.1003 
     66 C          35.1239   30.0836    8.0967 C.2       11 UNK         0.5709 
     67 N          35.5587   29.1762    8.9619 N.am      11 UNK        -0.7358 
     68 O          34.7758   31.1929    8.4972 O.2       11 UNK        -0.4999 
     69 C69        35.6952   28.3618    6.1603 C.3       12 UNK        -0.0954 
     70 S70        34.5521   26.9598    6.4148 S.3       12 UNK        -0.2268 
     71 C71        33.8291   26.8301    4.7442 C.3       12 UNK         0.0203 
     72 H72        30.6161   25.3717   -5.6962 H         1 UNK         0.0888 
     73 H73        30.3018   23.7315   -5.1270 H         1 UNK         0.0888 
     74 H74        29.0538   24.6119   -6.0113 H         1 UNK         0.0888 
     75 H75        29.8988   23.6631   -2.9265 H         1 UNK         0.3017 
     76 H76        29.2904   26.0014   -1.4067 H         1 UNK         0.0873 
     77 H77        30.6621   23.9090   -0.6711 H         1 UNK         0.0745 
     78 H78        29.1356   23.1308   -0.3331 H         1 UNK         0.0745 
     79 H79        31.5003   23.5852    1.6854 H         1 UNK         0.0705 
     80 H80        30.0473   22.9826    2.4619 H         1 UNK         0.0705 
     81 H81        32.9368   25.1621    2.8111 H         1 UNK         0.1334 
     82 H82        31.7098   26.9642    6.4993 H         1 UNK         0.1417 
     83 H83        29.0507   24.3281    4.4148 H         1 UNK         0.1562 
     84 H84        29.5116   26.7406    7.3009 H         1 UNK         0.0748 
     85 H85        29.0470   25.0579    7.2311 H         1 UNK         0.0748 
     86 H86        28.9916   28.2473    5.1455 H         1 UNK         0.0940 
     87 H87        27.3053   28.6645    5.0211 H         1 UNK         0.0940 
     88 H88        28.8082   26.7290    3.2072 H         1 UNK         0.0703 
     89 H89        26.8880   25.9444    2.4583 H         1 UNK         0.3081 
     90 H90        23.6426   26.6219    2.7209 H         1 UNK         0.0719 
     91 H91        24.8143   27.6226    0.0655 H         1 UNK         0.0809 
     92 H92        23.1961   26.9572    0.2765 H         1 UNK         0.0809 
     93 H93        23.6331   28.4676    1.0582 H         1 UNK         0.0809 
     94 H94        25.4603   25.3409    0.7368 H         1 UNK         0.2990 
     95 H95        25.9684   22.6272    2.0055 H         1 UNK         0.0690 
     96 H96        24.4013   20.8406    1.1856 H         1 UNK         0.0788 
     97 H97        23.0673   21.9919    1.2496 H         1 UNK         0.0788 
     98 H98        23.8952   21.5171    2.7235 H         1 UNK         0.0788 
     99 H99        26.3922   22.9753   -0.1284 H         1 UNK         0.2993 
    100 H100       25.1676   22.9780   -2.9052 H         1 UNK         0.0949 
    101 H101       25.1383   25.2890   -3.9040 H         1 UNK         0.0767 
    102 H102       23.6003   24.8658   -3.1730 H         1 UNK         0.0767 
    103 H103       24.6953   25.9539   -2.3328 H         1 UNK         0.0767 
    104 H104       27.3268   23.4532   -2.7565 H         1 UNK         0.3013 
    105 H105       27.8382   27.6087    0.7719 H         1 UNK         0.3121 
    106 H106       28.4367   30.4202    0.3995 H         1 UNK         0.0774 
    107 H107       28.0792   29.8753   -1.9975 H         1 UNK         0.0815 
    108 H108       28.0610   28.1565   -1.6388 H         1 UNK         0.0815 
    109 H109       26.7834   29.2025   -1.0217 H         1 UNK         0.0815 
    110 H110       30.3470   27.4860    0.4263 H         1 UNK         0.2987 
    111 H111       32.5378   28.4954   -1.2024 H         1 UNK         0.0949 
    112 H112       33.6590   26.3914   -0.4587 H         1 UNK         0.0806 
    113 H113       32.3509   26.0731    0.6690 H         1 UNK         0.0806 
    114 H114       32.0466   26.0566   -1.0680 H         1 UNK         0.0806 
    115 H115       34.4917   29.2442   -0.5091 H         1 UNK         0.3010 
    116 H116       35.9748   30.4332    0.6437 H         1 UNK         0.0829 
    117 H117       36.5136   28.1155    1.3623 H         1 UNK         0.0813 
    118 H118       36.9041   29.2572    2.6355 H         1 UNK         0.0813 
    119 H119       35.4470   28.2797    2.7526 H         1 UNK         0.0813 
    120 H120       33.3595   31.5391    0.9143 H         1 UNK         0.3038 
    121 H121       32.1117   33.0340    1.9761 H         1 UNK         0.0769 
    122 H122       33.2667   34.8686    3.1669 H         1 UNK         0.0811 
    123 H123       34.2024   34.4014    1.7578 H         1 UNK         0.0811 
    124 H124       34.7093   33.8843    3.3656 H         1 UNK         0.0811 
    125 H125       32.1211   30.4374    3.1404 H         1 UNK         0.3204 
    126 H126       31.2315   29.2865    4.7526 H         1 UNK         0.0748 
    127 H127       29.8465   30.2406    6.5254 H         1 UNK         0.0771 
    128 H128       30.5602   31.8300    6.3213 H         1 UNK         0.0771 
    129 H129       29.5472   31.1439    5.0516 H         1 UNK         0.0771 
    130 H130       34.1039   30.5680    4.9333 H         1 UNK         0.2980 
    131 H131       35.8815   30.4721    6.1955 H         1 UNK         0.0545 
    132 H132       35.5673   29.3958    9.9453 H         1 UNK         0.3459 
    133 H133       35.8306   28.2587    8.6452 H         1 UNK         0.3459 
    134 H134       35.9781   28.3872    5.1076 H         1 UNK         0.0616 
    135 H135       36.6258   28.1466    6.6873 H         1 UNK         0.0616 
    136 H136       34.5589   26.3428    4.0961 H         1 UNK         0.0634 
    137 H137       33.6696   27.8268    4.3351 H         1 UNK         0.0634 
@<TRIPOS>BOND
     1    1    2 1    
     2    1   72 1    
     3    1   73 1    
     4    1   74 1    
     5    2    3 2    
     6    2    4 am   BACKBONE|DICT|INTERRES
     7    4    5 1    
     8    4   75 1    
     9    5    6 1    
    10    5   35 1    
    11    5   76 1    
    12    6    7 1    
    13    6   77 1    
    14    6   78 1    
    15    7    8 1    
    16    8    9 1    
    17    8   79 1    
    18    8   80 1    
    19    9   10 ar   
    20    9   14 ar   
    21   10   11 ar   
    22   10   81 1    
    23   11   12 ar   
    24   11   71 1    
    25   12   13 ar   
    26   12   82 1    
    27   13   14 ar   
    28   13   15 1    
    29   14   83 1    
    30   15   16 1    
    31   15   84 1    
    32   15   85 1    
    33   16   17 1    
    34   17   18 1    
    35   17   86 1    
    36   17   87 1    
    37   18   19 1    
    38   18   37 1    
    39   18   88 1    
    40   19   20 am   BACKBONE|DICT|INTERRES
    41   19   89 1    
    42   20   21 2    
    43   20   22 1    
    44   22   23 1    
    45   22   24 1    
    46   22   90 1    
    47   23   91 1    
    48   23   92 1    
    49   23   93 1    
    50   24   25 am   BACKBONE|DICT|INTERRES
    51   24   94 1    
    52   25   26 2    
    53   25   27 1    
    54   27   28 1    
    55   27   29 1    
    56   27   95 1    
    57   28   96 1    
    58   28   97 1    
    59   28   98 1    
    60   29   30 am   BACKBONE|DICT|INTERRES
    61   29   99 1    
    62   30   31 2    
    63   30   32 1    
    64   32   33 1    
    65   32   34 1    
    66   32  100 1    
    67   33  101 1    
    68   33  102 1    
    69   33  103 1    
    70   34   35 am   BACKBONE|DICT|INTERRES
    71   34  104 1    
    72   35   36 2    
    73   37   38 2    
    74   37   39 am   BACKBONE|DICT|INTERRES
    75   39   40 1    
    76   39  105 1    
    77   40   41 1    
    78   40   42 1    
    79   40  106 1    
    80   41  107 1    
    81   41  108 1    
    82   41  109 1    
    83   42   43 2    
    84   42   44 am   BACKBONE|DICT|INTERRES
    85   44   45 1    
    86   44  110 1    
    87   45   46 1    
    88   45   47 1    
    89   45  111 1    
    90   46  112 1    
    91   46  113 1    
    92   46  114 1    
    93   47   48 2    
    94   47   49 am   BACKBONE|DICT|INTERRES
    95   49   50 1    
    96   49  115 1    
    97   50   51 1    
    98   50   52 1    
    99   50  116 1    
   100   51  117 1    
   101   51  118 1    
   102   51  119 1    
   103   52   53 2    
   104   52   54 am   BACKBONE|DICT|INTERRES
   105   54   55 1    
   106   54  120 1    
   107   55   56 1    
   108   55   57 1    
   109   55  121 1    
   110   56  122 1    
   111   56  123 1    
   112   56  124 1    
   113   57   58 2    
   114   57   59 am   BACKBONE|DICT|INTERRES
   115   59   60 1    
   116   59  125 1    
   117   60   61 1    
   118   60   62 1    
   119   60  126 1    
   120   61  127 1    
   121   61  128 1    
   122   61  129 1    
   123   62   63 2    
   124   62   64 am   BACKBONE|DICT|INTERRES
   125   64   65 1    
   126   64  130 1    
   127   65   66 1    
   128   65   69 1    
   129   65  131 1    
   130   66   67 am   BACKBONE|DICT|INTERRES
   131   66   68 2    
   132   67  132 1    
   133   67  133 1    
   134   69   70 1    
   135   69  134 1    
   136   69  135 1    
   137   70   71 1    
   138   71  136 1    
   139   71  137 1    
@<TRIPOS>SUBSTRUCTURE
     1 UNK         1 GROUP             0       ****    0 ROOT    
