@<TRIPOS>MOLECULE
3R136
137   139    1
SMALL
USER_CHARGES


@<TRIPOS>ATOM
      1 CA         33.9066   20.0250   -0.8028 C.3       0 UNK        -0.1979 
      2 C          33.0130   21.0817   -0.1703 C.2       0 UNK         0.4864 
      3 O          33.4743   22.1927    0.0945 O.2       0 UNK        -0.5359 
      4 N          31.7427   20.7407    0.0808 N.am      1 UNK        -0.4318 
      5 CA         30.7328   21.6384    0.6506 C.3       1 UNK         0.0824 
      6 C6         29.4882   20.8690    1.1587 C.3       12 UNK        -0.0944 
      7 S7         29.9153   19.6325    2.4308 S.3       12 UNK        -0.2672 
      8 C8         29.2868   20.4165    3.9539 C.3       12 UNK         0.0333 
      9 C9         29.9451   21.7554    4.2781 C.ar      12 UNK        -0.0807 
     10 C10        31.3352   21.9078    4.2299 C.ar      12 UNK        -0.0894 
     11 C11        31.9371   23.1303    4.5443 C.ar      12 UNK        -0.0804 
     12 C12        31.1283   24.2025    4.9444 C.ar      12 UNK        -0.0824 
     13 C13        29.7383   24.0616    5.0140 C.ar      12 UNK        -0.0762 
     14 C14        29.1544   22.8379    4.6741 C.ar      12 UNK        -0.0782 
     15 C15        28.8693   25.2140    5.5003 C.3       12 UNK         0.0230 
     16 S16        27.7583   25.8259    4.1944 S.3       12 UNK        -0.2608 
     17 C17        27.0752   27.3295    4.9754 C.3       12 UNK        -0.0989 
     18 CA         27.2517   28.5551    4.0450 C.3       5 UNK         0.0716 
     19 N          26.3603   28.4826    2.8864 N.am      5 UNK        -0.4135 
     20 C          26.7576   28.4863    1.6124 C.2       4 UNK         0.5031 
     21 O          27.9342   28.5425    1.2470 O.2       4 UNK        -0.5229 
     22 CA         25.6516   28.4245    0.5558 C.3       4 UNK         0.0329 
     23 CB         25.2544   29.8343    0.0853 C.3       4 UNK        -0.2001 
     24 N          26.1730   27.6534   -0.5652 N.am      4 UNK        -0.4303 
     25 C          25.4858   26.7818   -1.3104 C.2       3 UNK         0.5044 
     26 O          24.2685   26.6143   -1.2241 O.2       3 UNK        -0.5152 
     27 CA         26.2924   25.9424   -2.3205 C.3       3 UNK         0.0319 
     28 CB         26.2007   26.5599   -3.7255 C.3       3 UNK        -0.2001 
     29 N          27.7055   25.7810   -1.9558 N.am      3 UNK        -0.4354 
     30 C          28.1488   25.0514   -0.9220 C.2       2 UNK         0.4964 
     31 O          27.4142   24.4086   -0.1681 O.2       2 UNK        -0.5047 
     32 CA         29.6667   25.0835   -0.6797 C.3       2 UNK         0.0288 
     33 CB         30.0766   26.3716    0.0474 C.3       2 UNK        -0.2113 
     34 N          30.1130   23.9432    0.1186 N.am      2 UNK        -0.4145 
     35 C          30.3222   22.7160   -0.3703 C.2       1 UNK         0.5006 
     36 O          30.1897   22.4166   -1.5611 O.2       1 UNK        -0.5103 
     37 C          27.0100   29.8867    4.7764 C.2       5 UNK         0.5055 
     38 O          25.9995   30.5530    4.5324 O.2       5 UNK        -0.5220 
     39 N          27.9724   30.2697    5.6293 N.am      6 UNK        -0.4450 
     40 CA         28.1314   31.5579    6.3236 C.3       6 UNK         0.0367 
     41 CB         26.9210   31.9021    7.2144 C.3       6 UNK        -0.1929 
     42 C          28.4849   32.7120    5.3681 C.2       6 UNK         0.5070 
     43 O          29.4757   33.4072    5.5971 O.2       6 UNK        -0.5237 
     44 N          27.7023   32.8672    4.2936 N.am      7 UNK        -0.4739 
     45 CA         27.9737   33.7580    3.1657 C.3       7 UNK         0.0276 
     46 CB         26.7695   33.7343    2.2109 C.3       7 UNK        -0.1927 
     47 C          29.2534   33.3403    2.4218 C.2       7 UNK         0.5013 
     48 O          29.5096   32.1416    2.2788 O.2       7 UNK        -0.5193 
     49 N          30.0375   34.3358    1.9814 N.am      8 UNK        -0.4253 
     50 CA         31.2992   34.2057    1.2323 C.3       8 UNK         0.0242 
     51 CB         31.0119   33.7166   -0.2038 C.3       8 UNK        -0.2000 
     52 C          32.3784   33.3485    1.9333 C.2       8 UNK         0.4948 
     53 O          33.2450   32.7938    1.2563 O.2       8 UNK        -0.5275 
     54 N          32.2948   33.2447    3.2697 N.am      9 UNK        -0.4246 
     55 CA         33.0864   32.3746    4.1486 C.3       9 UNK         0.0261 
     56 CB         34.5770   32.7780    4.1436 C.3       9 UNK        -0.1959 
     57 C          32.8725   30.8670    3.8872 C.2       9 UNK         0.5033 
     58 O          33.7630   30.0691    4.1919 O.2       9 UNK        -0.5390 
     59 N          31.6940   30.4953    3.3585 N.am      10 UNK        -0.4215 
     60 CA         31.2588   29.1285    3.0566 C.3       10 UNK         0.0240 
     61 CB         31.0033   28.3476    4.3691 C.3       10 UNK        -0.1982 
     62 C          32.2258   28.4200    2.0873 C.2       10 UNK         0.4970 
     63 O          32.4680   28.9296    0.9925 O.2       10 UNK        -0.4916 
     64 N          32.7554   27.2662    2.5076 N.am      11 UNK        -0.4279 
     65 CA         33.7798   26.4806    1.8104 C.3       11 UNK         0.1003 
     66 C          35.2019   27.1208    1.7910 C.2       11 UNK         0.5709 
     67 N          35.4631   28.2133    2.5015 N.am      11 UNK        -0.7358 
     68 O          36.0870   26.6197    1.1014 O.2       11 UNK        -0.4999 
     69 C69        33.7936   25.0157    2.3270 C.3       12 UNK        -0.0954 
     70 S70        34.1251   24.8868    4.1193 S.3       12 UNK        -0.2268 
     71 C71        33.4627   23.2304    4.5028 C.3       12 UNK         0.0203 
     72 H72        34.7607   19.8212   -0.1575 H         1 UNK         0.0888 
     73 H73        33.3755   19.0878   -0.9684 H         1 UNK         0.0888 
     74 H74        34.2809   20.3773   -1.7636 H         1 UNK         0.0888 
     75 H75        31.4143   19.8182   -0.1650 H         1 UNK         0.3017 
     76 H76        31.1932   22.1461    1.4999 H         1 UNK         0.0873 
     77 H77        28.7473   21.5604    1.5658 H         1 UNK         0.0745 
     78 H78        28.9950   20.3504    0.3342 H         1 UNK         0.0745 
     79 H79        28.2052   20.5287    3.8626 H         1 UNK         0.0705 
     80 H80        29.4551   19.7366    4.7899 H         1 UNK         0.0705 
     81 H81        31.9525   21.0663    3.9454 H         1 UNK         0.1334 
     82 H82        31.5803   25.1424    5.2270 H         1 UNK         0.1417 
     83 H83        28.0797   22.7293    4.7342 H         1 UNK         0.1562 
     84 H84        29.4909   26.0330    5.8644 H         1 UNK         0.0748 
     85 H85        28.2722   24.8807    6.3503 H         1 UNK         0.0748 
     86 H86        27.5705   27.4882    5.9350 H         1 UNK         0.0940 
     87 H87        26.0216   27.1622    5.2069 H         1 UNK         0.0940 
     88 H88        28.2873   28.5810    3.7060 H         1 UNK         0.0703 
     89 H89        25.3732   28.5239    3.0962 H         1 UNK         0.3081 
     90 H90        24.7819   27.9195    0.9822 H         1 UNK         0.0719 
     91 H91        26.1051   30.3727   -0.3348 H         1 UNK         0.0809 
     92 H92        24.4751   29.7925   -0.6758 H         1 UNK         0.0809 
     93 H93        24.8687   30.4289    0.9145 H         1 UNK         0.0809 
     94 H94        27.1800   27.6937   -0.6574 H         1 UNK         0.2990 
     95 H95        25.8382   24.9497   -2.3544 H         1 UNK         0.0690 
     96 H96        26.6977   25.9350   -4.4678 H         1 UNK         0.0788 
     97 H97        26.6531   27.5518   -3.7619 H         1 UNK         0.0788 
     98 H98        25.1607   26.6650   -4.0380 H         1 UNK         0.0788 
     99 H99        28.3760   26.2802   -2.5234 H         1 UNK         0.2993 
    100 H100       30.1706   25.0546   -1.6488 H         1 UNK         0.0949 
    101 H101       31.1592   26.4316    0.1429 H         1 UNK         0.0767 
    102 H102       29.7559   27.2603   -0.4976 H         1 UNK         0.0767 
    103 H103       29.6454   26.4280    1.0482 H         1 UNK         0.0767 
    104 H104       30.1797   24.0930    1.1146 H         1 UNK         0.3013 
    105 H105       28.7561   29.6447    5.7491 H         1 UNK         0.3121 
    106 H106       28.9898   31.4291    6.9853 H         1 UNK         0.0774 
    107 H107       26.0209   32.1012    6.6327 H         1 UNK         0.0815 
    108 H108       27.1217   32.7947    7.8082 H         1 UNK         0.0815 
    109 H109       26.6986   31.0933    7.9103 H         1 UNK         0.0815 
    110 H110       26.9342   32.2106    4.1878 H         1 UNK         0.2987 
    111 H111       28.0983   34.7699    3.5573 H         1 UNK         0.0949 
    112 H112       26.5958   32.7351    1.8079 H         1 UNK         0.0806 
    113 H113       25.8572   34.0560    2.7135 H         1 UNK         0.0806 
    114 H114       26.9267   34.4045    1.3647 H         1 UNK         0.0806 
    115 H115       29.7462   35.2862    2.1684 H         1 UNK         0.3010 
    116 H116       31.7180   35.2107    1.1615 H         1 UNK         0.0829 
    117 H117       30.6484   32.6883   -0.2129 H         1 UNK         0.0813 
    118 H118       30.2653   34.3408   -0.6948 H         1 UNK         0.0813 
    119 H119       31.9119   33.7487   -0.8192 H         1 UNK         0.0813 
    120 H120       31.5401   33.7407    3.7256 H         1 UNK         0.3038 
    121 H121       32.7065   32.5513    5.1560 H         1 UNK         0.0769 
    122 H122       35.1286   32.2441    4.9184 H         1 UNK         0.0811 
    123 H123       35.0562   32.5485    3.1915 H         1 UNK         0.0811 
    124 H124       34.7018   33.8435    4.3355 H         1 UNK         0.0811 
    125 H125       31.0437   31.2207    3.0645 H         1 UNK         0.3204 
    126 H126       30.3104   29.2214    2.5255 H         1 UNK         0.0748 
    127 H127       30.5412   27.3820    4.1619 H         1 UNK         0.0771 
    128 H128       31.9202   28.1690    4.9325 H         1 UNK         0.0771 
    129 H129       30.3308   28.8927    5.0273 H         1 UNK         0.0771 
    130 H130       32.5302   26.9443    3.4362 H         1 UNK         0.2980 
    131 H131       33.4814   26.4379    0.7618 H         1 UNK         0.0545 
    132 H132       36.3891   28.6075    2.4671 H         1 UNK         0.3459 
    133 H133       34.7493   28.6619    3.0653 H         1 UNK         0.3459 
    134 H134       32.8292   24.5503    2.1169 H         1 UNK         0.0616 
    135 H135       34.5313   24.4184    1.7881 H         1 UNK         0.0616 
    136 H136       33.8683   22.5245    3.7759 H         1 UNK         0.0634 
    137 H137       33.8484   22.9267    5.4765 H         1 UNK         0.0634 
@<TRIPOS>BOND
     1    1    2 1    
     2    1   72 1    
     3    1   73 1    
     4    1   74 1    
     5    2    3 2    
     6    2    4 am   BACKBONE|DICT|INTERRES
     7    4    5 1    
     8    4   75 1    
     9    5    6 1    
    10    5   35 1    
    11    5   76 1    
    12    6    7 1    
    13    6   77 1    
    14    6   78 1    
    15    7    8 1    
    16    8    9 1    
    17    8   79 1    
    18    8   80 1    
    19    9   10 ar   
    20    9   14 ar   
    21   10   11 ar   
    22   10   81 1    
    23   11   12 ar   
    24   11   71 1    
    25   12   13 ar   
    26   12   82 1    
    27   13   14 ar   
    28   13   15 1    
    29   14   83 1    
    30   15   16 1    
    31   15   84 1    
    32   15   85 1    
    33   16   17 1    
    34   17   18 1    
    35   17   86 1    
    36   17   87 1    
    37   18   19 1    
    38   18   37 1    
    39   18   88 1    
    40   19   20 am   BACKBONE|DICT|INTERRES
    41   19   89 1    
    42   20   21 2    
    43   20   22 1    
    44   22   23 1    
    45   22   24 1    
    46   22   90 1    
    47   23   91 1    
    48   23   92 1    
    49   23   93 1    
    50   24   25 am   BACKBONE|DICT|INTERRES
    51   24   94 1    
    52   25   26 2    
    53   25   27 1    
    54   27   28 1    
    55   27   29 1    
    56   27   95 1    
    57   28   96 1    
    58   28   97 1    
    59   28   98 1    
    60   29   30 am   BACKBONE|DICT|INTERRES
    61   29   99 1    
    62   30   31 2    
    63   30   32 1    
    64   32   33 1    
    65   32   34 1    
    66   32  100 1    
    67   33  101 1    
    68   33  102 1    
    69   33  103 1    
    70   34   35 am   BACKBONE|DICT|INTERRES
    71   34  104 1    
    72   35   36 2    
    73   37   38 2    
    74   37   39 am   BACKBONE|DICT|INTERRES
    75   39   40 1    
    76   39  105 1    
    77   40   41 1    
    78   40   42 1    
    79   40  106 1    
    80   41  107 1    
    81   41  108 1    
    82   41  109 1    
    83   42   43 2    
    84   42   44 am   BACKBONE|DICT|INTERRES
    85   44   45 1    
    86   44  110 1    
    87   45   46 1    
    88   45   47 1    
    89   45  111 1    
    90   46  112 1    
    91   46  113 1    
    92   46  114 1    
    93   47   48 2    
    94   47   49 am   BACKBONE|DICT|INTERRES
    95   49   50 1    
    96   49  115 1    
    97   50   51 1    
    98   50   52 1    
    99   50  116 1    
   100   51  117 1    
   101   51  118 1    
   102   51  119 1    
   103   52   53 2    
   104   52   54 am   BACKBONE|DICT|INTERRES
   105   54   55 1    
   106   54  120 1    
   107   55   56 1    
   108   55   57 1    
   109   55  121 1    
   110   56  122 1    
   111   56  123 1    
   112   56  124 1    
   113   57   58 2    
   114   57   59 am   BACKBONE|DICT|INTERRES
   115   59   60 1    
   116   59  125 1    
   117   60   61 1    
   118   60   62 1    
   119   60  126 1    
   120   61  127 1    
   121   61  128 1    
   122   61  129 1    
   123   62   63 2    
   124   62   64 am   BACKBONE|DICT|INTERRES
   125   64   65 1    
   126   64  130 1    
   127   65   66 1    
   128   65   69 1    
   129   65  131 1    
   130   66   67 am   BACKBONE|DICT|INTERRES
   131   66   68 2    
   132   67  132 1    
   133   67  133 1    
   134   69   70 1    
   135   69  134 1    
   136   69  135 1    
   137   70   71 1    
   138   71  136 1    
   139   71  137 1    
@<TRIPOS>SUBSTRUCTURE
     1 UNK         1 GROUP             0       ****    0 ROOT    
