@<TRIPOS>MOLECULE
3R136
137   139    1
SMALL
USER_CHARGES


@<TRIPOS>ATOM
      1 CA         29.7920   19.8908    4.3879 C.3       0 UNK        -0.1979 
      2 C          29.1586   20.1808    3.0352 C.2       0 UNK         0.4864 
      3 O          28.2882   19.4294    2.5941 O.2       0 UNK        -0.5359 
      4 N          29.5924   21.2636    2.3755 N.am      1 UNK        -0.4318 
      5 CA         29.1016   21.7061    1.0641 C.3       1 UNK         0.0824 
      6 C6         29.9871   22.8204    0.4585 C.3       12 UNK        -0.0944 
      7 S7         31.7283   22.3381    0.1825 S.3       12 UNK        -0.2672 
      8 C8         32.6160   22.9730    1.6490 C.3       12 UNK         0.0333 
      9 C9         32.3066   24.4325    1.9544 C.ar      12 UNK        -0.0807 
     10 C10        32.8018   25.4526    1.1351 C.ar      12 UNK        -0.0894 
     11 C11        32.4955   26.7923    1.3991 C.ar      12 UNK        -0.0804 
     12 C12        31.6720   27.0959    2.4904 C.ar      12 UNK        -0.0824 
     13 C13        31.1707   26.0886    3.3164 C.ar      12 UNK        -0.0762 
     14 C14        31.5072   24.7598    3.0538 C.ar      12 UNK        -0.0782 
     15 C15        30.2520   26.4237    4.4822 C.3       12 UNK         0.0230 
     16 S16        28.5231   25.9998    4.0908 S.3       12 UNK        -0.2608 
     17 C17        27.7554   27.6437    3.8677 C.3       12 UNK        -0.0989 
     18 CA         28.2482   28.4119    2.6164 C.3       5 UNK         0.0716 
     19 N          28.1953   27.6032    1.3924 N.am      5 UNK        -0.4135 
     20 C          28.8153   27.9008    0.2401 C.2       4 UNK         0.5031 
     21 O          29.4830   28.9211    0.0758 O.2       4 UNK        -0.5229 
     22 CA         28.6194   26.9412   -0.9475 C.3       4 UNK         0.0329 
     23 CB         29.8792   26.0922   -1.1694 C.3       4 UNK        -0.2001 
     24 N          27.4518   26.0650   -0.8085 N.am      4 UNK        -0.4303 
     25 C          26.1792   26.4851   -0.8652 C.2       3 UNK         0.5044 
     26 O          25.8540   27.6615   -1.0302 O.2       3 UNK        -0.5152 
     27 CA         25.0917   25.4164   -0.6682 C.3       3 UNK         0.0319 
     28 CB         24.7678   24.7207   -1.9996 C.3       3 UNK        -0.2001 
     29 N          25.4524   24.4092    0.3338 N.am      3 UNK        -0.4354 
     30 C          25.5875   24.6447    1.6450 C.2       2 UNK         0.4964 
     31 O          25.4421   25.7562    2.1519 O.2       2 UNK        -0.5047 
     32 CA         25.9556   23.4494    2.5420 C.3       2 UNK         0.0288 
     33 CB         24.8291   22.3970    2.5817 C.3       2 UNK        -0.2113 
     34 N          27.2557   22.8409    2.2267 N.am      2 UNK        -0.4145 
     35 C          27.6380   22.1948    1.1126 C.2       1 UNK         0.5006 
     36 O          26.9066   22.0016    0.1394 O.2       1 UNK        -0.5103 
     37 C          27.5570   29.7891    2.4860 C.2       5 UNK         0.5055 
     38 O          27.6893   30.6186    3.3866 O.2       5 UNK        -0.5220 
     39 N          26.8578   30.0319    1.3676 N.am      6 UNK        -0.4450 
     40 CA         26.3661   31.3475    0.9631 C.3       6 UNK         0.0367 
     41 CB         25.3577   31.1724   -0.1836 C.3       6 UNK        -0.1929 
     42 C          27.4934   32.3145    0.5455 C.2       6 UNK         0.5070 
     43 O          27.2862   33.5259    0.6204 O.2       6 UNK        -0.5237 
     44 N          28.6496   31.7891    0.1054 N.am      7 UNK        -0.4739 
     45 CA         29.8130   32.5894   -0.2923 C.3       7 UNK         0.0276 
     46 CB         30.7609   31.7431   -1.1583 C.3       7 UNK        -0.1927 
     47 C          30.5525   33.1727    0.9221 C.2       7 UNK         0.5013 
     48 O          30.8466   34.3688    0.9379 O.2       7 UNK        -0.5193 
     49 N          30.8117   32.3240    1.9214 N.am      8 UNK        -0.4253 
     50 CA         31.3978   32.6594    3.2148 C.3       8 UNK         0.0242 
     51 CB         32.9120   32.9143    3.0895 C.3       8 UNK        -0.2000 
     52 C          31.1090   31.4954    4.1663 C.2       8 UNK         0.4948 
     53 O          30.9089   30.3703    3.7069 O.2       8 UNK        -0.5275 
     54 N          31.1025   31.7778    5.4740 N.am      9 UNK        -0.4246 
     55 CA         30.6862   30.8417    6.5241 C.3       9 UNK         0.0261 
     56 CB         30.6150   31.5915    7.8650 C.3       9 UNK        -0.1959 
     57 C          31.5497   29.5742    6.6685 C.2       9 UNK         0.5033 
     58 O          31.0450   28.5764    7.1860 O.2       9 UNK        -0.5390 
     59 N          32.8183   29.6244    6.2399 N.am      10 UNK        -0.4215 
     60 CA         33.7727   28.5235    6.3757 C.3       10 UNK         0.0240 
     61 CB         34.3138   28.4643    7.8218 C.3       10 UNK        -0.1982 
     62 C          34.8879   28.6084    5.3217 C.2       10 UNK         0.4970 
     63 O          36.0634   28.4874    5.6717 O.2       10 UNK        -0.4916 
     64 N          34.5161   28.8013    4.0482 N.am      11 UNK        -0.4279 
     65 CA         35.4476   28.7096    2.9057 C.3       11 UNK         0.1003 
     66 C          35.8922   27.2641    2.5248 C.2       11 UNK         0.5709 
     67 N          35.3612   26.2133    3.1378 N.am      11 UNK        -0.7358 
     68 O          36.7607   27.0940    1.6722 O.2       11 UNK        -0.4999 
     69 C69        35.0044   29.5510    1.6738 C.3       12 UNK        -0.0954 
     70 S70        33.2324   29.5137    1.2467 S.3       12 UNK        -0.2268 
     71 C71        33.0167   27.8817    0.4605 C.3       12 UNK         0.0203 
     72 H72        29.0298   19.8922    5.1667 H         1 UNK         0.0888 
     73 H73        30.2663   18.9098    4.3770 H         1 UNK         0.0888 
     74 H74        30.5484   20.6294    4.6527 H         1 UNK         0.0888 
     75 H75        30.3320   21.8200    2.7749 H         1 UNK         0.3017 
     76 H76        29.1308   20.8443    0.3935 H         1 UNK         0.0873 
     77 H77        29.5957   23.1078   -0.5194 H         1 UNK         0.0745 
     78 H78        29.9334   23.7202    1.0697 H         1 UNK         0.0745 
     79 H79        33.6882   22.8643    1.4800 H         1 UNK         0.0705 
     80 H80        32.3848   22.3409    2.5071 H         1 UNK         0.0705 
     81 H81        33.4165   25.1987    0.2823 H         1 UNK         0.1334 
     82 H82        31.4067   28.1214    2.6914 H         1 UNK         0.1417 
     83 H83        31.1182   23.9807    3.6942 H         1 UNK         0.1562 
     84 H84        30.3327   27.4786    4.7475 H         1 UNK         0.0748 
     85 H85        30.5647   25.8648    5.3653 H         1 UNK         0.0748 
     86 H86        27.9401   28.2300    4.7703 H         1 UNK         0.0940 
     87 H87        26.6743   27.5010    3.8204 H         1 UNK         0.0940 
     88 H88        29.2966   28.6449    2.7801 H         1 UNK         0.0703 
     89 H89        27.6408   26.7610    1.4486 H         1 UNK         0.3081 
     90 H90        28.4663   27.5542   -1.8384 H         1 UNK         0.0719 
     91 H91        30.7116   26.7190   -1.4885 H         1 UNK         0.0809 
     92 H92        29.7319   25.3397   -1.9442 H         1 UNK         0.0809 
     93 H93        30.1912   25.5886   -0.2557 H         1 UNK         0.0809 
     94 H94        27.6254   25.0802   -0.6734 H         1 UNK         0.2990 
     95 H95        24.1897   25.9254   -0.3215 H         1 UNK         0.0690 
     96 H96        23.9354   24.0252   -1.8902 H         1 UNK         0.0788 
     97 H97        25.6225   24.1624   -2.3838 H         1 UNK         0.0788 
     98 H98        24.4828   25.4481   -2.7612 H         1 UNK         0.0788 
     99 H99        25.6580   23.4692    0.0059 H         1 UNK         0.2993 
    100 H100       26.0574   23.8477    3.5533 H         1 UNK         0.0949 
    101 H101       23.8857   22.8495    2.8903 H         1 UNK         0.0767 
    102 H102       24.6617   21.9313    1.6102 H         1 UNK         0.0767 
    103 H103       25.0566   21.6045    3.2949 H         1 UNK         0.0767 
    104 H104       27.9567   22.9586    2.9448 H         1 UNK         0.3013 
    105 H105       26.7669   29.2884    0.6881 H         1 UNK         0.3121 
    106 H106       25.8457   31.7946    1.8129 H         1 UNK         0.0774 
    107 H107       24.9486   32.1347   -0.4947 H         1 UNK         0.0815 
    108 H108       25.8187   30.7144   -1.0600 H         1 UNK         0.0815 
    109 H109       24.5179   30.5459    0.1179 H         1 UNK         0.0815 
    110 H110       28.7676   30.7799    0.0868 H         1 UNK         0.2987 
    111 H111       29.4625   33.4261   -0.9011 H         1 UNK         0.0949 
    112 H112       30.2544   31.3617   -2.0449 H         1 UNK         0.0806 
    113 H113       31.6107   32.3362   -1.4985 H         1 UNK         0.0806 
    114 H114       31.1608   30.8897   -0.6100 H         1 UNK         0.0806 
    115 H115       30.5296   31.3533    1.8433 H         1 UNK         0.3010 
    116 H116       30.9035   33.5547    3.5976 H         1 UNK         0.0829 
    117 H117       33.1255   33.7377    2.4081 H         1 UNK         0.0813 
    118 H118       33.3474   33.1760    4.0544 H         1 UNK         0.0813 
    119 H119       33.4390   32.0347    2.7233 H         1 UNK         0.0813 
    120 H120       31.3004   32.7239    5.7677 H         1 UNK         0.3038 
    121 H121       29.6780   30.5056    6.2709 H         1 UNK         0.0769 
    122 H122       31.5887   31.9855    8.1592 H         1 UNK         0.0811 
    123 H123       30.2764   30.9311    8.6648 H         1 UNK         0.0811 
    124 H124       29.9132   32.4245    7.8191 H         1 UNK         0.0811 
    125 H125       33.1588   30.4753    5.8137 H         1 UNK         0.3204 
    126 H126       33.2508   27.5854    6.1738 H         1 UNK         0.0748 
    127 H127       35.0079   27.6325    7.9498 H         1 UNK         0.0771 
    128 H128       34.8439   29.3793    8.0886 H         1 UNK         0.0771 
    129 H129       33.5110   28.3204    8.5450 H         1 UNK         0.0771 
    130 H130       33.5376   28.8910    3.8130 H         1 UNK         0.2980 
    131 H131       36.3797   29.1728    3.2356 H         1 UNK         0.0545 
    132 H132       34.6243   26.3300    3.8121 H         1 UNK         0.3459 
    133 H133       35.6688   25.2898    2.8809 H         1 UNK         0.3459 
    134 H134       35.2392   30.5967    1.8758 H         1 UNK         0.0616 
    135 H135       35.5871   29.3056    0.7841 H         1 UNK         0.0616 
    136 H136       33.9568   27.5746    0.0002 H         1 UNK         0.0634 
    137 H137       32.2993   28.0007   -0.3509 H         1 UNK         0.0634 
@<TRIPOS>BOND
     1    1    2 1    
     2    1   72 1    
     3    1   73 1    
     4    1   74 1    
     5    2    3 2    
     6    2    4 am   BACKBONE|DICT|INTERRES
     7    4    5 1    
     8    4   75 1    
     9    5    6 1    
    10    5   35 1    
    11    5   76 1    
    12    6    7 1    
    13    6   77 1    
    14    6   78 1    
    15    7    8 1    
    16    8    9 1    
    17    8   79 1    
    18    8   80 1    
    19    9   10 ar   
    20    9   14 ar   
    21   10   11 ar   
    22   10   81 1    
    23   11   12 ar   
    24   11   71 1    
    25   12   13 ar   
    26   12   82 1    
    27   13   14 ar   
    28   13   15 1    
    29   14   83 1    
    30   15   16 1    
    31   15   84 1    
    32   15   85 1    
    33   16   17 1    
    34   17   18 1    
    35   17   86 1    
    36   17   87 1    
    37   18   19 1    
    38   18   37 1    
    39   18   88 1    
    40   19   20 am   BACKBONE|DICT|INTERRES
    41   19   89 1    
    42   20   21 2    
    43   20   22 1    
    44   22   23 1    
    45   22   24 1    
    46   22   90 1    
    47   23   91 1    
    48   23   92 1    
    49   23   93 1    
    50   24   25 am   BACKBONE|DICT|INTERRES
    51   24   94 1    
    52   25   26 2    
    53   25   27 1    
    54   27   28 1    
    55   27   29 1    
    56   27   95 1    
    57   28   96 1    
    58   28   97 1    
    59   28   98 1    
    60   29   30 am   BACKBONE|DICT|INTERRES
    61   29   99 1    
    62   30   31 2    
    63   30   32 1    
    64   32   33 1    
    65   32   34 1    
    66   32  100 1    
    67   33  101 1    
    68   33  102 1    
    69   33  103 1    
    70   34   35 am   BACKBONE|DICT|INTERRES
    71   34  104 1    
    72   35   36 2    
    73   37   38 2    
    74   37   39 am   BACKBONE|DICT|INTERRES
    75   39   40 1    
    76   39  105 1    
    77   40   41 1    
    78   40   42 1    
    79   40  106 1    
    80   41  107 1    
    81   41  108 1    
    82   41  109 1    
    83   42   43 2    
    84   42   44 am   BACKBONE|DICT|INTERRES
    85   44   45 1    
    86   44  110 1    
    87   45   46 1    
    88   45   47 1    
    89   45  111 1    
    90   46  112 1    
    91   46  113 1    
    92   46  114 1    
    93   47   48 2    
    94   47   49 am   BACKBONE|DICT|INTERRES
    95   49   50 1    
    96   49  115 1    
    97   50   51 1    
    98   50   52 1    
    99   50  116 1    
   100   51  117 1    
   101   51  118 1    
   102   51  119 1    
   103   52   53 2    
   104   52   54 am   BACKBONE|DICT|INTERRES
   105   54   55 1    
   106   54  120 1    
   107   55   56 1    
   108   55   57 1    
   109   55  121 1    
   110   56  122 1    
   111   56  123 1    
   112   56  124 1    
   113   57   58 2    
   114   57   59 am   BACKBONE|DICT|INTERRES
   115   59   60 1    
   116   59  125 1    
   117   60   61 1    
   118   60   62 1    
   119   60  126 1    
   120   61  127 1    
   121   61  128 1    
   122   61  129 1    
   123   62   63 2    
   124   62   64 am   BACKBONE|DICT|INTERRES
   125   64   65 1    
   126   64  130 1    
   127   65   66 1    
   128   65   69 1    
   129   65  131 1    
   130   66   67 am   BACKBONE|DICT|INTERRES
   131   66   68 2    
   132   67  132 1    
   133   67  133 1    
   134   69   70 1    
   135   69  134 1    
   136   69  135 1    
   137   70   71 1    
   138   71  136 1    
   139   71  137 1    
@<TRIPOS>SUBSTRUCTURE
     1 UNK         1 GROUP             0       ****    0 ROOT    
