@<TRIPOS>MOLECULE
3R136
137   139    1
SMALL
USER_CHARGES


@<TRIPOS>ATOM
      1 CA         26.0150   20.1124    2.5419 C.3       0 UNK        -0.1979 
      2 C          26.8014   20.1427    1.2395 C.2       0 UNK         0.4864 
      3 O          26.5926   19.2876    0.3771 O.2       0 UNK        -0.5359 
      4 N          27.7083   21.1164    1.0955 N.am      1 UNK        -0.4318 
      5 CA         28.4915   21.3640   -0.1177 C.3       1 UNK         0.0824 
      6 C6         29.7748   22.1840    0.1838 C.3       12 UNK        -0.0944 
      7 S7         29.4795   23.7593    1.0664 S.3       12 UNK        -0.2672 
      8 C8         30.2163   23.3639    2.6813 C.3       12 UNK         0.0333 
      9 C9         30.0077   24.4895    3.6801 C.ar      12 UNK        -0.0807 
     10 C10        31.0668   25.3301    4.0349 C.ar      12 UNK        -0.0894 
     11 C11        30.8883   26.3436    4.9877 C.ar      12 UNK        -0.0804 
     12 C12        29.6211   26.5176    5.5587 C.ar      12 UNK        -0.0824 
     13 C13        28.5536   25.6810    5.2142 C.ar      12 UNK        -0.0762 
     14 C14        28.7591   24.6630    4.2796 C.ar      12 UNK        -0.0782 
     15 C15        27.1938   25.8421    5.8863 C.3       12 UNK         0.0230 
     16 S16        25.8193   25.9636    4.6921 S.3       12 UNK        -0.2608 
     17 C17        26.0647   27.6397    4.0156 C.3       12 UNK        -0.0989 
     18 CA         26.9275   27.6591    2.7225 C.3       5 UNK         0.0716 
     19 N          26.4585   26.7676    1.6561 N.am      5 UNK        -0.4135 
     20 C          25.2720   26.8038    1.0364 C.2       4 UNK         0.5031 
     21 O          24.3800   27.6128    1.2990 O.2       4 UNK        -0.5229 
     22 CA         25.0813   25.7734   -0.0974 C.3       4 UNK         0.0329 
     23 CB         23.8536   26.0786   -0.9810 C.3       4 UNK        -0.2001 
     24 N          26.2773   25.5974   -0.9365 N.am      4 UNK        -0.4303 
     25 C          26.9502   26.5630   -1.5872 C.2       3 UNK         0.5044 
     26 O          26.6669   27.7562   -1.5023 O.2       3 UNK        -0.5152 
     27 CA         28.1625   26.1631   -2.4502 C.3       3 UNK         0.0319 
     28 CB         29.4713   26.5866   -1.7606 C.3       3 UNK        -0.2001 
     29 N          28.2189   24.7335   -2.7579 N.am      3 UNK        -0.4354 
     30 C          27.3873   24.0951   -3.5952 C.2       2 UNK         0.4964 
     31 O          26.5479   24.6667   -4.2913 O.2       2 UNK        -0.5047 
     32 CA         27.4838   22.5570   -3.6486 C.3       2 UNK         0.0288 
     33 CB         28.2502   22.1107   -4.9047 C.3       2 UNK        -0.2113 
     34 N          28.1018   21.9427   -2.4655 N.am      2 UNK        -0.4145 
     35 C          27.6348   22.0346   -1.2110 C.2       1 UNK         0.5006 
     36 O          26.6192   22.6678   -0.9064 O.2       1 UNK        -0.5103 
     37 C          27.2381   29.0986    2.2518 C.2       5 UNK         0.5055 
     38 O          27.4741   29.9585    3.1011 O.2       5 UNK        -0.5220 
     39 N          27.3440   29.3510    0.9342 N.am      6 UNK        -0.4450 
     40 CA         27.8889   30.6094    0.3939 C.3       6 UNK         0.0367 
     41 CB         27.6367   30.6917   -1.1194 C.3       6 UNK        -0.1929 
     42 C          29.3904   30.7951    0.6984 C.2       6 UNK         0.5070 
     43 O          29.8953   31.9136    0.6142 O.2       6 UNK        -0.5237 
     44 N          30.0630   29.7007    1.0807 N.am      7 UNK        -0.4739 
     45 CA         31.4340   29.6554    1.5852 C.3       7 UNK         0.0276 
     46 CB         31.9579   28.2164    1.4384 C.3       7 UNK        -0.1927 
     47 C          31.5873   30.1526    3.0389 C.2       7 UNK         0.5013 
     48 O          32.7018   30.1013    3.5583 O.2       7 UNK        -0.5193 
     49 N          30.5051   30.6191    3.6866 N.am      8 UNK        -0.4253 
     50 CA         30.5180   31.2341    5.0211 C.3       8 UNK         0.0242 
     51 CB         29.1132   31.7514    5.3659 C.3       8 UNK        -0.2000 
     52 C          31.5543   32.3680    5.1342 C.2       8 UNK         0.4948 
     53 O          31.6806   33.1748    4.2102 O.2       8 UNK        -0.5275 
     54 N          32.3185   32.3604    6.2343 N.am      9 UNK        -0.4246 
     55 CA         33.5136   33.1700    6.5206 C.3       9 UNK         0.0261 
     56 CB         33.2257   34.6837    6.4708 C.3       9 UNK        -0.1959 
     57 C          34.7419   32.8006    5.6644 C.2       9 UNK         0.5033 
     58 O          35.8444   32.7405    6.2107 O.2       9 UNK        -0.5390 
     59 N          34.5494   32.5136    4.3682 N.am      10 UNK        -0.4215 
     60 CA         35.5912   32.0581    3.4375 C.3       10 UNK         0.0240 
     61 CB         35.0471   32.0461    1.9996 C.3       10 UNK        -0.1982 
     62 C          36.2051   30.6948    3.8144 C.2       10 UNK         0.4970 
     63 O          37.3755   30.4647    3.5068 O.2       10 UNK        -0.4916 
     64 N          35.4372   29.8462    4.5137 N.am      11 UNK        -0.4279 
     65 CA         35.9184   28.6425    5.2137 C.3       11 UNK         0.1003 
     66 C          37.0052   28.9063    6.3026 C.2       11 UNK         0.5709 
     67 N          37.1801   30.1227    6.8089 N.am      11 UNK        -0.7358 
     68 O          37.7087   27.9789    6.6966 O.2       11 UNK        -0.4999 
     69 C69        34.7513   27.8277    5.8355 C.3       12 UNK        -0.0954 
     70 S70        33.6298   27.0759    4.6110 S.3       12 UNK        -0.2268 
     71 C71        32.0312   27.2347    5.4853 C.3       12 UNK         0.0203 
     72 H72        26.3064   20.9202    3.2133 H         1 UNK         0.0888 
     73 H73        24.9490   20.2096    2.3380 H         1 UNK         0.0888 
     74 H74        26.1793   19.1667    3.0579 H         1 UNK         0.0888 
     75 H75        27.8042   21.8193    1.8132 H         1 UNK         0.3017 
     76 H76        28.8059   20.3944   -0.5110 H         1 UNK         0.0873 
     77 H77        30.3221   22.4053   -0.7343 H         1 UNK         0.0745 
     78 H78        30.4568   21.5675    0.7716 H         1 UNK         0.0745 
     79 H79        29.7733   22.4465    3.0721 H         1 UNK         0.0705 
     80 H80        31.2803   23.1605    2.5493 H         1 UNK         0.0705 
     81 H81        32.0326   25.1676    3.5791 H         1 UNK         0.1334 
     82 H82        29.4741   27.2922    6.2993 H         1 UNK         0.1417 
     83 H83        27.9428   24.0035    4.0175 H         1 UNK         0.1562 
     84 H84        27.1787   26.7127    6.5439 H         1 UNK         0.0748 
     85 H85        27.0211   24.9752    6.5254 H         1 UNK         0.0748 
     86 H86        26.5167   28.2592    4.7926 H         1 UNK         0.0940 
     87 H87        25.0834   28.0772    3.8255 H         1 UNK         0.0940 
     88 H88        27.9058   27.2613    2.9938 H         1 UNK         0.0703 
     89 H89        27.1160   26.0588    1.3636 H         1 UNK         0.3081 
     90 H90        24.9070   24.8132    0.3908 H         1 UNK         0.0719 
     91 H91        23.7239   25.3203   -1.7533 H         1 UNK         0.0809 
     92 H92        23.9429   27.0474   -1.4740 H         1 UNK         0.0809 
     93 H93        22.9381   26.0969   -0.3885 H         1 UNK         0.0809 
     94 H94        26.5828   24.6342   -1.0455 H         1 UNK         0.2990 
     95 H95        28.0824   26.7102   -3.3919 H         1 UNK         0.0690 
     96 H96        30.3385   26.3605   -2.3812 H         1 UNK         0.0788 
     97 H97        29.6060   26.0873   -0.8011 H         1 UNK         0.0788 
     98 H98        29.4846   27.6609   -1.5713 H         1 UNK         0.0788 
     99 H99        28.8860   24.1850   -2.2358 H         1 UNK         0.2993 
    100 H100       26.4616   22.1781   -3.7169 H         1 UNK         0.0949 
    101 H101       27.7978   22.5254   -5.8069 H         1 UNK         0.0767 
    102 H102       29.2901   22.4393   -4.8814 H         1 UNK         0.0767 
    103 H103       28.2415   21.0256   -5.0116 H         1 UNK         0.0767 
    104 H104       28.9457   21.4124   -2.6306 H         1 UNK         0.3013 
    105 H105       27.0916   28.6387    0.2549 H         1 UNK         0.3121 
    106 H106       27.3563   31.4360    0.8692 H         1 UNK         0.0774 
    107 H107       27.9475   31.6603   -1.5130 H         1 UNK         0.0815 
    108 H108       28.1931   29.9284   -1.6641 H         1 UNK         0.0815 
    109 H109       26.5791   30.5712   -1.3546 H         1 UNK         0.0815 
    110 H110       29.5545   28.8301    1.1034 H         1 UNK         0.2987 
    111 H111       32.0490   30.3086    0.9627 H         1 UNK         0.0949 
    112 H112       31.3983   27.5187    2.0624 H         1 UNK         0.0806 
    113 H113       31.8953   27.8710    0.4063 H         1 UNK         0.0806 
    114 H114       33.0053   28.1490    1.7359 H         1 UNK         0.0806 
    115 H115       29.6136   30.6071    3.2084 H         1 UNK         0.3010 
    116 H116       30.7786   30.4507    5.7344 H         1 UNK         0.0829 
    117 H117       28.3921   30.9356    5.4173 H         1 UNK         0.0813 
    118 H118       29.1036   32.2494    6.3364 H         1 UNK         0.0813 
    119 H119       28.7568   32.4692    4.6258 H         1 UNK         0.0813 
    120 H120       32.1297   31.6438    6.9221 H         1 UNK         0.3038 
    121 H121       33.7783   32.9304    7.5519 H         1 UNK         0.0769 
    122 H122       34.0867   35.2514    6.8260 H         1 UNK         0.0811 
    123 H123       32.3793   34.9481    7.1046 H         1 UNK         0.0811 
    124 H124       33.0100   35.0302    5.4599 H         1 UNK         0.0811 
    125 H125       33.6010   32.5796    4.0105 H         1 UNK         0.3204 
    126 H126       36.3985   32.7921    3.4805 H         1 UNK         0.0748 
    127 H127       35.8360   31.7947    1.2895 H         1 UNK         0.0771 
    128 H128       34.2523   31.3131    1.8696 H         1 UNK         0.0771 
    129 H129       34.6542   33.0222    1.7145 H         1 UNK         0.0771 
    130 H130       34.4460   30.0485    4.5869 H         1 UNK         0.2980 
    131 H131       36.3993   28.0159    4.4605 H         1 UNK         0.0545 
    132 H132       36.6319   30.9149    6.4924 H         1 UNK         0.3459 
    133 H133       37.8914   30.2602    7.5087 H         1 UNK         0.3459 
    134 H134       34.1788   28.4645    6.5125 H         1 UNK         0.0616 
    135 H135       35.1319   27.0052    6.4445 H         1 UNK         0.0616 
    136 H136       32.1931   27.0035    6.5391 H         1 UNK         0.0634 
    137 H137       31.7204   28.2778    5.4409 H         1 UNK         0.0634 
@<TRIPOS>BOND
     1    1    2 1    
     2    1   72 1    
     3    1   73 1    
     4    1   74 1    
     5    2    3 2    
     6    2    4 am   BACKBONE|DICT|INTERRES
     7    4    5 1    
     8    4   75 1    
     9    5    6 1    
    10    5   35 1    
    11    5   76 1    
    12    6    7 1    
    13    6   77 1    
    14    6   78 1    
    15    7    8 1    
    16    8    9 1    
    17    8   79 1    
    18    8   80 1    
    19    9   10 ar   
    20    9   14 ar   
    21   10   11 ar   
    22   10   81 1    
    23   11   12 ar   
    24   11   71 1    
    25   12   13 ar   
    26   12   82 1    
    27   13   14 ar   
    28   13   15 1    
    29   14   83 1    
    30   15   16 1    
    31   15   84 1    
    32   15   85 1    
    33   16   17 1    
    34   17   18 1    
    35   17   86 1    
    36   17   87 1    
    37   18   19 1    
    38   18   37 1    
    39   18   88 1    
    40   19   20 am   BACKBONE|DICT|INTERRES
    41   19   89 1    
    42   20   21 2    
    43   20   22 1    
    44   22   23 1    
    45   22   24 1    
    46   22   90 1    
    47   23   91 1    
    48   23   92 1    
    49   23   93 1    
    50   24   25 am   BACKBONE|DICT|INTERRES
    51   24   94 1    
    52   25   26 2    
    53   25   27 1    
    54   27   28 1    
    55   27   29 1    
    56   27   95 1    
    57   28   96 1    
    58   28   97 1    
    59   28   98 1    
    60   29   30 am   BACKBONE|DICT|INTERRES
    61   29   99 1    
    62   30   31 2    
    63   30   32 1    
    64   32   33 1    
    65   32   34 1    
    66   32  100 1    
    67   33  101 1    
    68   33  102 1    
    69   33  103 1    
    70   34   35 am   BACKBONE|DICT|INTERRES
    71   34  104 1    
    72   35   36 2    
    73   37   38 2    
    74   37   39 am   BACKBONE|DICT|INTERRES
    75   39   40 1    
    76   39  105 1    
    77   40   41 1    
    78   40   42 1    
    79   40  106 1    
    80   41  107 1    
    81   41  108 1    
    82   41  109 1    
    83   42   43 2    
    84   42   44 am   BACKBONE|DICT|INTERRES
    85   44   45 1    
    86   44  110 1    
    87   45   46 1    
    88   45   47 1    
    89   45  111 1    
    90   46  112 1    
    91   46  113 1    
    92   46  114 1    
    93   47   48 2    
    94   47   49 am   BACKBONE|DICT|INTERRES
    95   49   50 1    
    96   49  115 1    
    97   50   51 1    
    98   50   52 1    
    99   50  116 1    
   100   51  117 1    
   101   51  118 1    
   102   51  119 1    
   103   52   53 2    
   104   52   54 am   BACKBONE|DICT|INTERRES
   105   54   55 1    
   106   54  120 1    
   107   55   56 1    
   108   55   57 1    
   109   55  121 1    
   110   56  122 1    
   111   56  123 1    
   112   56  124 1    
   113   57   58 2    
   114   57   59 am   BACKBONE|DICT|INTERRES
   115   59   60 1    
   116   59  125 1    
   117   60   61 1    
   118   60   62 1    
   119   60  126 1    
   120   61  127 1    
   121   61  128 1    
   122   61  129 1    
   123   62   63 2    
   124   62   64 am   BACKBONE|DICT|INTERRES
   125   64   65 1    
   126   64  130 1    
   127   65   66 1    
   128   65   69 1    
   129   65  131 1    
   130   66   67 am   BACKBONE|DICT|INTERRES
   131   66   68 2    
   132   67  132 1    
   133   67  133 1    
   134   69   70 1    
   135   69  134 1    
   136   69  135 1    
   137   70   71 1    
   138   71  136 1    
   139   71  137 1    
@<TRIPOS>SUBSTRUCTURE
     1 UNK         1 GROUP             0       ****    0 ROOT    
