@<TRIPOS>MOLECULE
3R136
137   139    1
SMALL
USER_CHARGES


@<TRIPOS>ATOM
      1 CA         30.4126   21.2684   -1.5506 C.3       0 UNK        -0.1979 
      2 C          29.5353   22.2018   -2.3723 C.2       0 UNK         0.4864 
      3 O          28.9760   21.7834   -3.3874 O.2       0 UNK        -0.5359 
      4 N          29.4177   23.4640   -1.9435 N.am      1 UNK        -0.4318 
      5 CA         28.5445   24.4808   -2.5355 C.3       1 UNK         0.0824 
      6 C6         28.9763   25.9200   -2.1375 C.3       12 UNK        -0.0944 
      7 S7         29.2882   26.1499   -0.3496 S.3       12 UNK        -0.2672 
      8 C8         31.1087   26.2426   -0.3493 C.3       12 UNK         0.0333 
      9 C9         31.6416   26.0245    1.0538 C.ar      12 UNK        -0.0807 
     10 C10        31.8654   27.1125    1.8990 C.ar      12 UNK        -0.0894 
     11 C11        32.2652   26.9191    3.2243 C.ar      12 UNK        -0.0804 
     12 C12        32.4366   25.6141    3.7001 C.ar      12 UNK        -0.0824 
     13 C13        32.1788   24.5170    2.8714 C.ar      12 UNK        -0.0762 
     14 C14        31.8347   24.7271    1.5334 C.ar      12 UNK        -0.0782 
     15 C15        32.1292   23.1118    3.4517 C.3       12 UNK         0.0230 
     16 S16        30.4054   22.4982    3.5353 S.3       12 UNK        -0.2608 
     17 C17        29.5605   23.8276    4.4675 C.3       12 UNK        -0.0989 
     18 CA         28.8816   24.8661    3.5265 C.3       5 UNK         0.0716 
     19 N          27.7352   24.3563    2.7722 N.am      5 UNK        -0.4135 
     20 C          26.5746   23.8990    3.2589 C.2       4 UNK         0.5031 
     21 O          26.3066   23.7949    4.4571 O.2       4 UNK        -0.5229 
     22 CA         25.5428   23.4894    2.1932 C.3       4 UNK         0.0329 
     23 CB         24.2237   22.9498    2.7882 C.3       4 UNK        -0.2001 
     24 N          25.2911   24.5673    1.2287 N.am      4 UNK        -0.4303 
     25 C          24.7358   25.7688    1.4668 C.2       3 UNK         0.5044 
     26 O          24.3630   26.1438    2.5785 O.2       3 UNK        -0.5152 
     27 CA         24.5602   26.7331    0.2725 C.3       3 UNK         0.0319 
     28 CB         25.4413   27.9805    0.4443 C.3       3 UNK        -0.2001 
     29 N          24.8590   26.1317   -1.0279 N.am      3 UNK        -0.4354 
     30 C          24.1045   25.2209   -1.6586 C.2       2 UNK         0.4964 
     31 O          22.9956   24.8604   -1.2638 O.2       2 UNK        -0.5047 
     32 CA         24.7001   24.5757   -2.9260 C.3       2 UNK         0.0288 
     33 CB         24.0364   25.1565   -4.1857 C.3       2 UNK        -0.2113 
     34 N          26.1600   24.6995   -3.0538 N.am      2 UNK        -0.4145 
     35 C          27.0652   24.2115   -2.1913 C.2       1 UNK         0.5006 
     36 O          26.7664   23.6265   -1.1452 O.2       1 UNK        -0.5103 
     37 C          28.5480   26.1964    4.2250 C.2       5 UNK         0.5055 
     38 O          28.2614   26.2151    5.4237 O.2       5 UNK        -0.5220 
     39 N          28.6033   27.2853    3.4452 N.am      6 UNK        -0.4450 
     40 CA         28.4193   28.6594    3.9168 C.3       6 UNK         0.0367 
     41 CB         26.9335   28.9470    4.2040 C.3       6 UNK        -0.1929 
     42 C          28.9901   29.6992    2.9404 C.2       6 UNK         0.5070 
     43 O          29.4420   30.7521    3.3879 O.2       6 UNK        -0.5237 
     44 N          28.9532   29.4202    1.6287 N.am      7 UNK        -0.4739 
     45 CA         29.2859   30.3769    0.5653 C.3       7 UNK         0.0276 
     46 CB         28.5069   29.9917   -0.7073 C.3       7 UNK        -0.1927 
     47 C          30.7996   30.5337    0.3053 C.2       7 UNK         0.5013 
     48 O          31.2391   30.3946   -0.8376 O.2       7 UNK        -0.5193 
     49 N          31.5748   30.8342    1.3535 N.am      8 UNK        -0.4253 
     50 CA         32.9942   31.1841    1.2790 C.3       8 UNK         0.0242 
     51 CB         33.8732   29.9381    1.0494 C.3       8 UNK        -0.2000 
     52 C          33.4017   31.8985    2.5698 C.2       8 UNK         0.4948 
     53 O          32.8082   31.6471    3.6211 O.2       8 UNK        -0.5275 
     54 N          34.4444   32.7362    2.4794 N.am      9 UNK        -0.4246 
     55 CA         34.9892   33.5381    3.5840 C.3       9 UNK         0.0261 
     56 CB         36.1117   34.4428    3.0506 C.3       9 UNK        -0.1959 
     57 C          35.4886   32.7174    4.7876 C.2       9 UNK         0.5033 
     58 O          35.4674   33.2239    5.9101 O.2       9 UNK        -0.5390 
     59 N          35.8824   31.4580    4.5478 N.am      10 UNK        -0.4215 
     60 CA         36.2731   30.4793    5.5677 C.3       10 UNK         0.0240 
     61 CB         36.7635   29.1980    4.8730 C.3       10 UNK        -0.1982 
     62 C          35.1625   30.1488    6.5852 C.2       10 UNK         0.4970 
     63 O          35.4839   29.7473    7.7043 O.2       10 UNK        -0.4916 
     64 N          33.8947   30.3349    6.1943 N.am      11 UNK        -0.4279 
     65 CA         32.7218   30.2112    7.0708 C.3       11 UNK         0.1003 
     66 C          32.3896   31.5202    7.8483 C.2       11 UNK         0.5709 
     67 N          33.1179   32.6185    7.6758 N.am      11 UNK        -0.7358 
     68 O          31.4574   31.5360    8.6488 O.2       11 UNK        -0.4999 
     69 C69        31.4929   29.6794    6.2880 C.3       12 UNK        -0.0954 
     70 S70        31.6846   27.9433    5.7615 S.3       12 UNK        -0.2268 
     71 C71        32.4758   28.1273    4.1308 C.3       12 UNK         0.0203 
     72 H72        29.8327   20.4095   -1.2139 H         1 UNK         0.0888 
     73 H73        31.2428   20.9042   -2.1551 H         1 UNK         0.0888 
     74 H74        30.8243   21.7632   -0.6710 H         1 UNK         0.0888 
     75 H75        29.8586   23.7419   -1.0799 H         1 UNK         0.3017 
     76 H76        28.6384   24.3987   -3.6209 H         1 UNK         0.0873 
     77 H77        28.2349   26.6559   -2.4545 H         1 UNK         0.0745 
     78 H78        29.8803   26.1834   -2.6888 H         1 UNK         0.0745 
     79 H79        31.5249   25.4898   -1.0206 H         1 UNK         0.0705 
     80 H80        31.4232   27.2139   -0.7357 H         1 UNK         0.0705 
     81 H81        31.7009   28.1114    1.5266 H         1 UNK         0.1334 
     82 H82        32.7068   25.4531    4.7348 H         1 UNK         0.1417 
     83 H83        31.6189   23.8788    0.8987 H         1 UNK         0.1562 
     84 H84        32.5692   23.0855    4.4499 H         1 UNK         0.0748 
     85 H85        32.7226   22.4374    2.8328 H         1 UNK         0.0748 
     86 H86        30.2922   24.3119    5.1167 H         1 UNK         0.0940 
     87 H87        28.8302   23.3777    5.1411 H         1 UNK         0.0940 
     88 H88        29.5983   25.1293    2.7577 H         1 UNK         0.0703 
     89 H89        27.8310   24.3973    1.7676 H         1 UNK         0.3081 
     90 H90        25.9968   22.6756    1.6252 H         1 UNK         0.0719 
     91 H91        23.7234   23.6902    3.4129 H         1 UNK         0.0809 
     92 H92        23.5296   22.6485    2.0037 H         1 UNK         0.0809 
     93 H93        24.4091   22.0742    3.4115 H         1 UNK         0.0809 
     94 H94        25.6061   24.3685    0.2834 H         1 UNK         0.2990 
     95 H95        23.5156   27.0514    0.2654 H         1 UNK         0.0690 
     96 H96        25.3213   28.6686   -0.3926 H         1 UNK         0.0788 
     97 H97        26.4975   27.7212    0.5225 H         1 UNK         0.0788 
     98 H98        25.1653   28.5275    1.3456 H         1 UNK         0.0788 
     99 H99        25.7489   26.3713   -1.4385 H         1 UNK         0.2993 
    100 H100       24.4673   23.5098   -2.8755 H         1 UNK         0.0949 
    101 H101       24.3698   24.6391   -5.0857 H         1 UNK         0.0767 
    102 H102       22.9512   25.0525   -4.1398 H         1 UNK         0.0767 
    103 H103       24.2570   26.2181   -4.3053 H         1 UNK         0.0767 
    104 H104       26.4911   25.1766   -3.8805 H         1 UNK         0.3013 
    105 H105       28.9175   27.1730    2.4927 H         1 UNK         0.3121 
    106 H106       28.9725   28.7739    4.8507 H         1 UNK         0.0774 
    107 H107       26.7854   29.9855    4.5033 H         1 UNK         0.0815 
    108 H108       26.3127   28.7659    3.3282 H         1 UNK         0.0815 
    109 H109       26.5540   28.3239    5.0137 H         1 UNK         0.0815 
    110 H110       28.5636   28.5454    1.3159 H         1 UNK         0.2987 
    111 H111       28.9287   31.3640    0.8684 H         1 UNK         0.0949 
    112 H112       28.8026   29.0125   -1.0836 H         1 UNK         0.0806 
    113 H113       27.4329   29.9767   -0.5260 H         1 UNK         0.0806 
    114 H114       28.6818   30.7124   -1.5073 H         1 UNK         0.0806 
    115 H115       31.1443   30.9545    2.2686 H         1 UNK         0.3010 
    116 H116       33.1288   31.8774    0.4457 H         1 UNK         0.0829 
    117 H117       33.5620   29.3776    0.1679 H         1 UNK         0.0813 
    118 H118       34.9146   30.2211    0.8927 H         1 UNK         0.0813 
    119 H119       33.8518   29.2609    1.9018 H         1 UNK         0.0813 
    120 H120       34.8807   32.8663    1.5773 H         1 UNK         0.3038 
    121 H121       34.1813   34.1761    3.9485 H         1 UNK         0.0769 
    122 H122       36.5186   35.0699    3.8454 H         1 UNK         0.0811 
    123 H123       35.7475   35.1112    2.2701 H         1 UNK         0.0811 
    124 H124       36.9383   33.8622    2.6390 H         1 UNK         0.0811 
    125 H125       35.8719   31.1369    3.5912 H         1 UNK         0.3204 
    126 H126       37.1067   30.9063    6.1290 H         1 UNK         0.0748 
    127 H127       37.0764   28.4518    5.6048 H         1 UNK         0.0771 
    128 H128       35.9838   28.7452    4.2595 H         1 UNK         0.0771 
    129 H129       37.6222   29.3979    4.2316 H         1 UNK         0.0771 
    130 H130       33.7064   30.7107    5.2717 H         1 UNK         0.2980 
    131 H131       32.9477   29.4765    7.8458 H         1 UNK         0.0545 
    132 H132       33.9072   32.6392    7.0401 H         1 UNK         0.3459 
    133 H133       32.8816   33.4453    8.2003 H         1 UNK         0.3459 
    134 H134       30.5979   29.7084    6.9118 H         1 UNK         0.0616 
    135 H135       31.2738   30.3127    5.4275 H         1 UNK         0.0616 
    136 H136       33.5449   28.2881    4.2669 H         1 UNK         0.0634 
    137 H137       32.0793   29.0228    3.6524 H         1 UNK         0.0634 
@<TRIPOS>BOND
     1    1    2 1    
     2    1   72 1    
     3    1   73 1    
     4    1   74 1    
     5    2    3 2    
     6    2    4 am   BACKBONE|DICT|INTERRES
     7    4    5 1    
     8    4   75 1    
     9    5    6 1    
    10    5   35 1    
    11    5   76 1    
    12    6    7 1    
    13    6   77 1    
    14    6   78 1    
    15    7    8 1    
    16    8    9 1    
    17    8   79 1    
    18    8   80 1    
    19    9   10 ar   
    20    9   14 ar   
    21   10   11 ar   
    22   10   81 1    
    23   11   12 ar   
    24   11   71 1    
    25   12   13 ar   
    26   12   82 1    
    27   13   14 ar   
    28   13   15 1    
    29   14   83 1    
    30   15   16 1    
    31   15   84 1    
    32   15   85 1    
    33   16   17 1    
    34   17   18 1    
    35   17   86 1    
    36   17   87 1    
    37   18   19 1    
    38   18   37 1    
    39   18   88 1    
    40   19   20 am   BACKBONE|DICT|INTERRES
    41   19   89 1    
    42   20   21 2    
    43   20   22 1    
    44   22   23 1    
    45   22   24 1    
    46   22   90 1    
    47   23   91 1    
    48   23   92 1    
    49   23   93 1    
    50   24   25 am   BACKBONE|DICT|INTERRES
    51   24   94 1    
    52   25   26 2    
    53   25   27 1    
    54   27   28 1    
    55   27   29 1    
    56   27   95 1    
    57   28   96 1    
    58   28   97 1    
    59   28   98 1    
    60   29   30 am   BACKBONE|DICT|INTERRES
    61   29   99 1    
    62   30   31 2    
    63   30   32 1    
    64   32   33 1    
    65   32   34 1    
    66   32  100 1    
    67   33  101 1    
    68   33  102 1    
    69   33  103 1    
    70   34   35 am   BACKBONE|DICT|INTERRES
    71   34  104 1    
    72   35   36 2    
    73   37   38 2    
    74   37   39 am   BACKBONE|DICT|INTERRES
    75   39   40 1    
    76   39  105 1    
    77   40   41 1    
    78   40   42 1    
    79   40  106 1    
    80   41  107 1    
    81   41  108 1    
    82   41  109 1    
    83   42   43 2    
    84   42   44 am   BACKBONE|DICT|INTERRES
    85   44   45 1    
    86   44  110 1    
    87   45   46 1    
    88   45   47 1    
    89   45  111 1    
    90   46  112 1    
    91   46  113 1    
    92   46  114 1    
    93   47   48 2    
    94   47   49 am   BACKBONE|DICT|INTERRES
    95   49   50 1    
    96   49  115 1    
    97   50   51 1    
    98   50   52 1    
    99   50  116 1    
   100   51  117 1    
   101   51  118 1    
   102   51  119 1    
   103   52   53 2    
   104   52   54 am   BACKBONE|DICT|INTERRES
   105   54   55 1    
   106   54  120 1    
   107   55   56 1    
   108   55   57 1    
   109   55  121 1    
   110   56  122 1    
   111   56  123 1    
   112   56  124 1    
   113   57   58 2    
   114   57   59 am   BACKBONE|DICT|INTERRES
   115   59   60 1    
   116   59  125 1    
   117   60   61 1    
   118   60   62 1    
   119   60  126 1    
   120   61  127 1    
   121   61  128 1    
   122   61  129 1    
   123   62   63 2    
   124   62   64 am   BACKBONE|DICT|INTERRES
   125   64   65 1    
   126   64  130 1    
   127   65   66 1    
   128   65   69 1    
   129   65  131 1    
   130   66   67 am   BACKBONE|DICT|INTERRES
   131   66   68 2    
   132   67  132 1    
   133   67  133 1    
   134   69   70 1    
   135   69  134 1    
   136   69  135 1    
   137   70   71 1    
   138   71  136 1    
   139   71  137 1    
@<TRIPOS>SUBSTRUCTURE
     1 UNK         1 GROUP             0       ****    0 ROOT    
