@<TRIPOS>MOLECULE
3R136
137   139    1
SMALL
USER_CHARGES


@<TRIPOS>ATOM
      1 CA         30.1401   16.5745    2.9613 C.3       0 UNK        -0.1979 
      2 C          29.6438   17.4031    1.7856 C.2       0 UNK         0.4864 
      3 O          28.8517   16.9088    0.9822 O.2       0 UNK        -0.5359 
      4 N          30.1063   18.6571    1.6782 N.am      1 UNK        -0.4318 
      5 CA         29.7236   19.6087    0.6269 C.3       1 UNK         0.0824 
      6 C6         30.6916   20.8197    0.5978 C.3       12 UNK        -0.0944 
      7 S7         30.6995   21.6881   -1.0066 S.3       12 UNK        -0.2672 
      8 C8         29.6660   23.1387   -0.6361 C.3       12 UNK         0.0333 
      9 C9         30.4937   24.3635   -0.2717 C.ar      12 UNK        -0.0807 
     10 C10        31.0539   24.4939    1.0036 C.ar      12 UNK        -0.0894 
     11 C11        31.7682   25.6450    1.3486 C.ar      12 UNK        -0.0804 
     12 C12        31.9383   26.6606    0.4060 C.ar      12 UNK        -0.0824 
     13 C13        31.3635   26.5535   -0.8615 C.ar      12 UNK        -0.0762 
     14 C14        30.6520   25.3985   -1.1992 C.ar      12 UNK        -0.0782 
     15 C15        31.4903   27.6949   -1.8573 C.3       12 UNK         0.0230 
     16 S16        29.9840   28.7195   -1.8990 S.3       12 UNK        -0.2608 
     17 C17        30.0542   29.6111   -0.3064 C.3       12 UNK        -0.0989 
     18 CA         28.7910   29.3638    0.5588 C.3       5 UNK         0.0716 
     19 N          28.7141   27.9828    1.0402 N.am      5 UNK        -0.4135 
     20 C          27.5935   27.3858    1.4627 C.2       4 UNK         0.5031 
     21 O          26.4713   27.8980    1.4172 O.2       4 UNK        -0.5229 
     22 CA         27.7645   25.9862    2.0768 C.3       4 UNK         0.0329 
     23 CB         27.6842   26.0599    3.6105 C.3       4 UNK        -0.2001 
     24 N          26.7847   25.0086    1.5991 N.am      4 UNK        -0.4303 
     25 C          26.5492   24.6719    0.3245 C.2       3 UNK         0.5044 
     26 O          27.1238   25.1763   -0.6412 O.2       3 UNK        -0.5152 
     27 CA         25.5301   23.5367    0.1043 C.3       3 UNK         0.0319 
     28 CB         25.2386   23.2834   -1.3867 C.3       3 UNK        -0.2001 
     29 N          25.9777   22.2798    0.7111 N.am      3 UNK        -0.4354 
     30 C          25.9080   21.9612    2.0086 C.2       2 UNK         0.4964 
     31 O          25.4687   22.7255    2.8691 O.2       2 UNK        -0.5047 
     32 CA         26.4072   20.5656    2.4278 C.3       2 UNK         0.0288 
     33 CB         25.3995   19.4716    2.0223 C.3       2 UNK        -0.2113 
     34 N          27.7707   20.2252    1.9908 N.am      2 UNK        -0.4145 
     35 C          28.2454   20.0488    0.7461 C.2       1 UNK         0.5006 
     36 O          27.5732   20.2031   -0.2756 O.2       1 UNK        -0.5103 
     37 C          28.7115   30.3609    1.7358 C.2       5 UNK         0.5055 
     38 O          28.9284   29.9893    2.8935 O.2       5 UNK        -0.5220 
     39 N          28.4019   31.6202    1.3976 N.am      6 UNK        -0.4450 
     40 CA         28.2705   32.7551    2.3152 C.3       6 UNK         0.0367 
     41 CB         27.4878   33.8718    1.5949 C.3       6 UNK        -0.1929 
     42 C          29.6253   33.2487    2.8679 C.2       6 UNK         0.5070 
     43 O          30.6291   32.5374    2.7919 O.2       6 UNK        -0.5237 
     44 N          29.6378   34.4741    3.4128 N.am      7 UNK        -0.4739 
     45 CA         30.7473   35.1300    4.1248 C.3       7 UNK         0.0276 
     46 CB         30.2988   36.5404    4.5418 C.3       7 UNK        -0.1927 
     47 C          32.1058   35.1977    3.3960 C.2       7 UNK         0.5013 
     48 O          33.1218   35.4115    4.0575 O.2       7 UNK        -0.5193 
     49 N          32.1171   34.9923    2.0712 N.am      8 UNK        -0.4253 
     50 CA         33.3274   34.7935    1.2676 C.3       8 UNK         0.0242 
     51 CB         32.9504   34.7713   -0.2226 C.3       8 UNK        -0.2000 
     52 C          34.0992   33.5133    1.6487 C.2       8 UNK         0.4948 
     53 O          35.3289   33.5117    1.5782 O.2       8 UNK        -0.5275 
     54 N          33.3691   32.4666    2.0583 N.am      9 UNK        -0.4246 
     55 CA         33.9093   31.2310    2.6287 C.3       9 UNK         0.0261 
     56 CB         33.2192   30.0221    1.9769 C.3       9 UNK        -0.1959 
     57 C          33.6987   31.1971    4.1499 C.2       9 UNK         0.5033 
     58 O          34.5915   30.7502    4.8702 O.2       9 UNK        -0.5390 
     59 N          32.5216   31.6603    4.6017 N.am      10 UNK        -0.4215 
     60 CA         32.0486   31.7343    5.9903 C.3       10 UNK         0.0240 
     61 CB         32.9193   32.7024    6.8195 C.3       10 UNK        -0.1982 
     62 C          31.8692   30.3618    6.6718 C.2       10 UNK         0.4970 
     63 O          31.8526   30.2943    7.9022 O.2       10 UNK        -0.4916 
     64 N          31.7211   29.2977    5.8730 N.am      11 UNK        -0.4279 
     65 CA         31.4951   27.9216    6.3378 C.3       11 UNK         0.1003 
     66 C          30.0286   27.6136    6.7601 C.2       11 UNK         0.5709 
     67 N          29.0514   28.4501    6.4290 N.am      11 UNK        -0.7358 
     68 O          29.7787   26.6054    7.4166 O.2       11 UNK        -0.4999 
     69 C69        32.0503   26.8858    5.3259 C.3       12 UNK        -0.0954 
     70 S70        31.3072   27.0198    3.6678 S.3       12 UNK        -0.2268 
     71 C71        32.3188   25.8221    2.7521 C.3       12 UNK         0.0203 
     72 H72        29.3003   16.2647    3.5827 H         1 UNK         0.0888 
     73 H73        30.6467   15.6792    2.6017 H         1 UNK         0.0888 
     74 H74        30.8381   17.1301    3.5873 H         1 UNK         0.0888 
     75 H75        30.7695   18.9956    2.3614 H         1 UNK         0.3017 
     76 H76        29.8199   19.0768   -0.3227 H         1 UNK         0.0873 
     77 H77        30.4862   21.5103    1.4163 H         1 UNK         0.0745 
     78 H78        31.7152   20.4760    0.7568 H         1 UNK         0.0745 
     79 H79        28.9684   22.9126    0.1704 H         1 UNK         0.0705 
     80 H80        29.0484   23.3482   -1.5108 H         1 UNK         0.0705 
     81 H81        30.9114   23.7147    1.7380 H         1 UNK         0.1334 
     82 H82        32.4911   27.5491    0.6753 H         1 UNK         0.1417 
     83 H83        30.1978   25.3190   -2.1777 H         1 UNK         0.1562 
     84 H84        31.6669   27.2884   -2.8542 H         1 UNK         0.0748 
     85 H85        32.3540   28.3211   -1.6274 H         1 UNK         0.0748 
     86 H86        30.1652   30.6704   -0.5459 H         1 UNK         0.0940 
     87 H87        30.9551   29.3385    0.2408 H         1 UNK         0.0940 
     88 H88        27.9142   29.5448   -0.0675 H         1 UNK         0.0703 
     89 H89        29.5929   27.4942    1.1324 H         1 UNK         0.3081 
     90 H90        28.7501   25.6108    1.8064 H         1 UNK         0.0719 
     91 H91        28.3668   26.8139    4.0040 H         1 UNK         0.0809 
     92 H92        26.6822   26.3279    3.9476 H         1 UNK         0.0809 
     93 H93        27.9530   25.1087    4.0701 H         1 UNK         0.0809 
     94 H94        26.2666   24.5017    2.3086 H         1 UNK         0.2990 
     95 H95        24.5951   23.8434    0.5781 H         1 UNK         0.0690 
     96 H96        24.4683   22.5230   -1.5161 H         1 UNK         0.0788 
     97 H97        26.1300   22.9514   -1.9208 H         1 UNK         0.0788 
     98 H98        24.8822   24.1910   -1.8757 H         1 UNK         0.0788 
     99 H99        26.4099   21.5959    0.0935 H         1 UNK         0.2993 
    100 H100       26.4473   20.5738    3.5185 H         1 UNK         0.0949 
    101 H101       24.4093   19.6849    2.4272 H         1 UNK         0.0767 
    102 H102       25.2955   19.3893    0.9399 H         1 UNK         0.0767 
    103 H103       25.7019   18.4958    2.4030 H         1 UNK         0.0767 
    104 H104       28.4281   20.0869    2.7456 H         1 UNK         0.3013 
    105 H105       28.2667   31.8304    0.4195 H         1 UNK         0.3121 
    106 H106       27.6819   32.4233    3.1730 H         1 UNK         0.0774 
    107 H107       28.0680   34.3147    0.7842 H         1 UNK         0.0815 
    108 H108       26.5591   33.4912    1.1687 H         1 UNK         0.0815 
    109 H109       27.2063   34.6746    2.2770 H         1 UNK         0.0815 
    110 H110       28.7692   34.9895    3.4034 H         1 UNK         0.2987 
    111 H111       30.9203   34.5516    5.0341 H         1 UNK         0.0949 
    112 H112       29.4160   36.5059    5.1805 H         1 UNK         0.0806 
    113 H113       31.0806   37.0512    5.1062 H         1 UNK         0.0806 
    114 H114       30.0649   37.1607    3.6757 H         1 UNK         0.0806 
    115 H115       31.2314   34.8327    1.6141 H         1 UNK         0.3010 
    116 H116       33.9902   35.6437    1.4433 H         1 UNK         0.0829 
    117 H117       32.2705   33.9509   -0.4563 H         1 UNK         0.0813 
    118 H118       33.8369   34.6472   -0.8464 H         1 UNK         0.0813 
    119 H119       32.4715   35.7027   -0.5253 H         1 UNK         0.0813 
    120 H120       32.3594   32.5778    2.1078 H         1 UNK         0.3038 
    121 H121       34.9815   31.1589    2.4341 H         1 UNK         0.0769 
    122 H122       33.3701   30.0164    0.8974 H         1 UNK         0.0811 
    123 H123       32.1455   30.0182    2.1695 H         1 UNK         0.0811 
    124 H124       33.6235   29.0872    2.3680 H         1 UNK         0.0811 
    125 H125       31.8369   31.9615    3.9070 H         1 UNK         0.3204 
    126 H126       31.0473   32.1636    5.9351 H         1 UNK         0.0748 
    127 H127       33.9188   32.3013    6.9904 H         1 UNK         0.0771 
    128 H128       33.0271   33.6663    6.3221 H         1 UNK         0.0771 
    129 H129       32.4745   32.8924    7.7970 H         1 UNK         0.0771 
    130 H130       31.7160   29.4295    4.8728 H         1 UNK         0.2980 
    131 H131       32.0816   27.7930    7.2496 H         1 UNK         0.0545 
    132 H132       29.2414   29.2572    5.8567 H         1 UNK         0.3459 
    133 H133       28.1084   28.2446    6.7168 H         1 UNK         0.3459 
    134 H134       31.9074   25.8688    5.6958 H         1 UNK         0.0616 
    135 H135       33.1287   27.0195    5.2265 H         1 UNK         0.0616 
    136 H136       33.3509   26.1728    2.7071 H         1 UNK         0.0634 
    137 H137       32.3301   24.8706    3.2862 H         1 UNK         0.0634 
@<TRIPOS>BOND
     1    1    2 1    
     2    1   72 1    
     3    1   73 1    
     4    1   74 1    
     5    2    3 2    
     6    2    4 am   BACKBONE|DICT|INTERRES
     7    4    5 1    
     8    4   75 1    
     9    5    6 1    
    10    5   35 1    
    11    5   76 1    
    12    6    7 1    
    13    6   77 1    
    14    6   78 1    
    15    7    8 1    
    16    8    9 1    
    17    8   79 1    
    18    8   80 1    
    19    9   10 ar   
    20    9   14 ar   
    21   10   11 ar   
    22   10   81 1    
    23   11   12 ar   
    24   11   71 1    
    25   12   13 ar   
    26   12   82 1    
    27   13   14 ar   
    28   13   15 1    
    29   14   83 1    
    30   15   16 1    
    31   15   84 1    
    32   15   85 1    
    33   16   17 1    
    34   17   18 1    
    35   17   86 1    
    36   17   87 1    
    37   18   19 1    
    38   18   37 1    
    39   18   88 1    
    40   19   20 am   BACKBONE|DICT|INTERRES
    41   19   89 1    
    42   20   21 2    
    43   20   22 1    
    44   22   23 1    
    45   22   24 1    
    46   22   90 1    
    47   23   91 1    
    48   23   92 1    
    49   23   93 1    
    50   24   25 am   BACKBONE|DICT|INTERRES
    51   24   94 1    
    52   25   26 2    
    53   25   27 1    
    54   27   28 1    
    55   27   29 1    
    56   27   95 1    
    57   28   96 1    
    58   28   97 1    
    59   28   98 1    
    60   29   30 am   BACKBONE|DICT|INTERRES
    61   29   99 1    
    62   30   31 2    
    63   30   32 1    
    64   32   33 1    
    65   32   34 1    
    66   32  100 1    
    67   33  101 1    
    68   33  102 1    
    69   33  103 1    
    70   34   35 am   BACKBONE|DICT|INTERRES
    71   34  104 1    
    72   35   36 2    
    73   37   38 2    
    74   37   39 am   BACKBONE|DICT|INTERRES
    75   39   40 1    
    76   39  105 1    
    77   40   41 1    
    78   40   42 1    
    79   40  106 1    
    80   41  107 1    
    81   41  108 1    
    82   41  109 1    
    83   42   43 2    
    84   42   44 am   BACKBONE|DICT|INTERRES
    85   44   45 1    
    86   44  110 1    
    87   45   46 1    
    88   45   47 1    
    89   45  111 1    
    90   46  112 1    
    91   46  113 1    
    92   46  114 1    
    93   47   48 2    
    94   47   49 am   BACKBONE|DICT|INTERRES
    95   49   50 1    
    96   49  115 1    
    97   50   51 1    
    98   50   52 1    
    99   50  116 1    
   100   51  117 1    
   101   51  118 1    
   102   51  119 1    
   103   52   53 2    
   104   52   54 am   BACKBONE|DICT|INTERRES
   105   54   55 1    
   106   54  120 1    
   107   55   56 1    
   108   55   57 1    
   109   55  121 1    
   110   56  122 1    
   111   56  123 1    
   112   56  124 1    
   113   57   58 2    
   114   57   59 am   BACKBONE|DICT|INTERRES
   115   59   60 1    
   116   59  125 1    
   117   60   61 1    
   118   60   62 1    
   119   60  126 1    
   120   61  127 1    
   121   61  128 1    
   122   61  129 1    
   123   62   63 2    
   124   62   64 am   BACKBONE|DICT|INTERRES
   125   64   65 1    
   126   64  130 1    
   127   65   66 1    
   128   65   69 1    
   129   65  131 1    
   130   66   67 am   BACKBONE|DICT|INTERRES
   131   66   68 2    
   132   67  132 1    
   133   67  133 1    
   134   69   70 1    
   135   69  134 1    
   136   69  135 1    
   137   70   71 1    
   138   71  136 1    
   139   71  137 1    
@<TRIPOS>SUBSTRUCTURE
     1 UNK         1 GROUP             0       ****    0 ROOT    
