@<TRIPOS>MOLECULE
3R136
137   139    1
SMALL
USER_CHARGES


@<TRIPOS>ATOM
      1 CA         27.8563   24.5682   -1.8029 C.3       0 UNK        -0.1979 
      2 C          27.8221   24.4492   -0.2877 C.2       0 UNK         0.4864 
      3 O          26.8612   24.8950    0.3380 O.2       0 UNK        -0.5359 
      4 N          28.8490   23.8259    0.3076 N.am      1 UNK        -0.4318 
      5 CA         29.0208   23.6155    1.7539 C.3       1 UNK         0.0824 
      6 C6         30.4097   23.0262    2.1225 C.3       12 UNK        -0.0944 
      7 S7         31.0009   21.7356    0.9640 S.3       12 UNK        -0.2672 
      8 C8         32.8089   22.0105    0.9068 C.3       12 UNK         0.0333 
      9 C9         33.2067   23.4672    0.6878 C.ar      12 UNK        -0.0807 
     10 C10        34.0675   24.0945    1.5962 C.ar      12 UNK        -0.0894 
     11 C11        34.3965   25.4445    1.4473 C.ar      12 UNK        -0.0804 
     12 C12        33.8691   26.1640    0.3747 C.ar      12 UNK        -0.0824 
     13 C13        32.9979   25.5560   -0.5321 C.ar      12 UNK        -0.0762 
     14 C14        32.6892   24.2000   -0.3874 C.ar      12 UNK        -0.0782 
     15 C15        32.3535   26.3891   -1.6311 C.3       12 UNK         0.0230 
     16 S16        30.6101   26.8026   -1.2714 S.3       12 UNK        -0.2608 
     17 C17        30.6063   27.1326    0.5246 C.3       12 UNK        -0.0989 
     18 CA         29.3700   27.9569    0.9782 C.3       5 UNK         0.0716 
     19 N          28.7076   27.3676    2.1448 N.am      5 UNK        -0.4135 
     20 C          27.4381   27.6082    2.4978 C.2       4 UNK         0.5031 
     21 O          26.7137   28.4156    1.9127 O.2       4 UNK        -0.5229 
     22 CA         26.8927   26.8009    3.6939 C.3       4 UNK         0.0329 
     23 CB         26.3594   27.7084    4.8201 C.3       4 UNK        -0.2001 
     24 N          25.8987   25.8045    3.2716 N.am      4 UNK        -0.4303 
     25 C          24.6573   25.9988    2.7926 C.2       3 UNK         0.5044 
     26 O          24.0871   27.0902    2.7631 O.2       3 UNK        -0.5152 
     27 CA         23.9043   24.7583    2.2678 C.3       3 UNK         0.0319 
     28 CB         23.0960   25.0752    0.9955 C.3       3 UNK        -0.2001 
     29 N          24.8199   23.6542    1.9736 N.am      3 UNK        -0.4354 
     30 C          24.7472   22.4183    2.4893 C.2       2 UNK         0.4964 
     31 O          23.8533   22.0467    3.2505 O.2       2 UNK        -0.5047 
     32 CA         25.8611   21.4184    2.1090 C.3       2 UNK         0.0288 
     33 CB         25.3741   20.4692    1.0020 C.3       2 UNK        -0.2113 
     34 N          27.1128   22.0499    1.6784 N.am      2 UNK        -0.4145 
     35 C          27.8676   22.8553    2.4399 C.2       1 UNK         0.5006 
     36 O          27.6344   23.0750    3.6294 O.2       1 UNK        -0.5103 
     37 C          29.7542   29.4198    1.2608 C.2       5 UNK         0.5055 
     38 O          30.4368   29.6854    2.2544 O.2       5 UNK        -0.5220 
     39 N          29.3631   30.3263    0.3562 N.am      6 UNK        -0.4450 
     40 CA         29.6249   31.7670    0.4414 C.3       6 UNK         0.0367 
     41 CB         28.7590   32.4964   -0.5981 C.3       6 UNK        -0.1929 
     42 C          31.1049   32.1583    0.2728 C.2       6 UNK         0.5070 
     43 O          31.4714   33.2733    0.6452 O.2       6 UNK        -0.5237 
     44 N          31.9311   31.2467   -0.2636 N.am      7 UNK        -0.4739 
     45 CA         33.3638   31.4314   -0.5333 C.3       7 UNK         0.0276 
     46 CB         33.9133   30.1656   -1.2073 C.3       7 UNK        -0.1927 
     47 C          34.2154   31.7967    0.6985 C.2       7 UNK         0.5013 
     48 O          35.2429   32.4569    0.5399 O.2       7 UNK        -0.5193 
     49 N          33.7609   31.3987    1.8930 N.am      8 UNK        -0.4253 
     50 CA         34.2810   31.8628    3.1791 C.3       8 UNK         0.0242 
     51 CB         35.2429   30.8227    3.7851 C.3       8 UNK        -0.2000 
     52 C          33.0982   32.2168    4.0918 C.2       8 UNK         0.4948 
     53 O          33.0423   31.7664    5.2376 O.2       8 UNK        -0.5275 
     54 N          32.1477   32.9897    3.5435 N.am      9 UNK        -0.4246 
     55 CA         30.8996   33.4910    4.1359 C.3       9 UNK         0.0261 
     56 CB         31.1689   34.3821    5.3646 C.3       9 UNK        -0.1959 
     57 C          29.8568   32.4050    4.4529 C.2       9 UNK         0.5033 
     58 O          28.6946   32.5677    4.0788 O.2       9 UNK        -0.5390 
     59 N          30.2779   31.3315    5.1264 N.am      10 UNK        -0.4215 
     60 CA         29.4542   30.1905    5.5111 C.3       10 UNK         0.0240 
     61 CB         28.5618   30.5573    6.7174 C.3       10 UNK        -0.1982 
     62 C          30.3596   28.9802    5.7775 C.2       10 UNK         0.4970 
     63 O          30.3747   28.4596    6.8943 O.2       10 UNK        -0.4916 
     64 N          31.1218   28.5682    4.7570 N.am      11 UNK        -0.4279 
     65 CA         31.9750   27.3721    4.8043 C.3       11 UNK         0.1003 
     66 C          31.1248   26.0743    4.8152 C.2       11 UNK         0.5709 
     67 N          31.3941   25.1447    5.7204 N.am      11 UNK        -0.7358 
     68 O          30.2426   25.9004    3.9780 O.2       11 UNK        -0.4999 
     69 C69        33.0007   27.3570    3.6424 C.3       12 UNK        -0.0954 
     70 S70        34.4794   26.3745    4.0709 S.3       12 UNK        -0.2268 
     71 C71        35.2945   26.1439    2.4580 C.3       12 UNK         0.0203 
     72 H72        27.0302   24.0104   -2.2426 H         1 UNK         0.0888 
     73 H73        27.7575   25.6130   -2.0960 H         1 UNK         0.0888 
     74 H74        28.7884   24.1875   -2.2201 H         1 UNK         0.0888 
     75 H75        29.5968   23.4510   -0.2587 H         1 UNK         0.3017 
     76 H76        28.9742   24.6113    2.1909 H         1 UNK         0.0873 
     77 H77        30.4226   22.6223    3.1370 H         1 UNK         0.0745 
     78 H78        31.1231   23.8487    2.1487 H         1 UNK         0.0745 
     79 H79        33.2318   21.4043    0.1049 H         1 UNK         0.0705 
     80 H80        33.2382   21.6315    1.8356 H         1 UNK         0.0705 
     81 H81        34.4633   23.5428    2.4380 H         1 UNK         0.1334 
     82 H82        34.1099   27.2114    0.2704 H         1 UNK         0.1417 
     83 H83        32.0112   23.7275   -1.0846 H         1 UNK         0.1562 
     84 H84        32.4010   25.8475   -2.5769 H         1 UNK         0.0748 
     85 H85        32.9094   27.3143   -1.7861 H         1 UNK         0.0748 
     86 H86        31.5425   27.6249    0.7910 H         1 UNK         0.0940 
     87 H87        30.6361   26.1644    1.0266 H         1 UNK         0.0940 
     88 H88        28.6309   27.9470    0.1734 H         1 UNK         0.0703 
     89 H89        29.2760   26.7632    2.7356 H         1 UNK         0.3081 
     90 H90        27.7103   26.2196    4.1194 H         1 UNK         0.0719 
     91 H91        27.1641   28.3063    5.2431 H         1 UNK         0.0809 
     92 H92        25.5960   28.4011    4.4645 H         1 UNK         0.0809 
     93 H93        25.9305   27.1232    5.6334 H         1 UNK         0.0809 
     94 H94        26.2384   24.8513    3.2674 H         1 UNK         0.2990 
     95 H95        23.2038   24.4719    3.0546 H         1 UNK         0.0690 
     96 H96        22.5580   24.1966    0.6391 H         1 UNK         0.0788 
     97 H97        23.7433   25.4228    0.1890 H         1 UNK         0.0788 
     98 H98        22.3544   25.8532    1.1805 H         1 UNK         0.0788 
     99 H99        25.5895   23.8937    1.3508 H         1 UNK         0.2993 
    100 H100       26.0795   20.8263    3.0004 H         1 UNK         0.0949 
    101 H101       24.4588   19.9565    1.3017 H         1 UNK         0.0767 
    102 H102       25.1592   21.0054    0.0766 H         1 UNK         0.0767 
    103 H103       26.1158   19.7008    0.7823 H         1 UNK         0.0767 
    104 H104       27.3759   21.9292    0.7112 H         1 UNK         0.3013 
    105 H105       28.8184   30.0156   -0.4360 H         1 UNK         0.3121 
    106 H106       29.3169   32.1017    1.4336 H         1 UNK         0.0774 
    107 H107       28.9022   33.5763   -0.5371 H         1 UNK         0.0815 
    108 H108       29.0065   32.1924   -1.6159 H         1 UNK         0.0815 
    109 H109       27.6980   32.3048   -0.4365 H         1 UNK         0.0815 
    110 H110       31.5307   30.3636   -0.5435 H         1 UNK         0.2987 
    111 H111       33.4543   32.2611   -1.2376 H         1 UNK         0.0949 
    112 H112       33.3899   29.9494   -2.1388 H         1 UNK         0.0806 
    113 H113       33.8187   29.2984   -0.5560 H         1 UNK         0.0806 
    114 H114       34.9710   30.2782   -1.4503 H         1 UNK         0.0806 
    115 H115       32.8985   30.8701    1.9229 H         1 UNK         0.3010 
    116 H116       34.8388   32.7914    3.0380 H         1 UNK         0.0829 
    117 H117       34.7296   29.9100    4.0802 H         1 UNK         0.0813 
    118 H118       36.0330   30.5543    3.0839 H         1 UNK         0.0813 
    119 H119       35.7244   31.2202    4.6792 H         1 UNK         0.0813 
    120 H120       32.2615   33.2395    2.5654 H         1 UNK         0.3038 
    121 H121       30.4561   34.1271    3.3677 H         1 UNK         0.0769 
    122 H122       30.2419   34.8222    5.7346 H         1 UNK         0.0811 
    123 H123       31.8413   35.2036    5.1180 H         1 UNK         0.0811 
    124 H124       31.6114   33.8228    6.1893 H         1 UNK         0.0811 
    125 H125       31.2692   31.2860    5.3632 H         1 UNK         0.3204 
    126 H126       28.8128   29.9274    4.6674 H         1 UNK         0.0748 
    127 H127       27.9737   29.7017    7.0509 H         1 UNK         0.0771 
    128 H128       29.1570   30.8948    7.5667 H         1 UNK         0.0771 
    129 H129       27.8580   31.3509    6.4667 H         1 UNK         0.0771 
    130 H130       31.0048   29.0160    3.8498 H         1 UNK         0.2980 
    131 H131       32.5300   27.4300    5.7432 H         1 UNK         0.0545 
    132 H132       32.1285   25.2757    6.3977 H         1 UNK         0.3459 
    133 H133       30.8503   24.2971    5.7257 H         1 UNK         0.3459 
    134 H134       32.5453   26.9650    2.7346 H         1 UNK         0.0616 
    135 H135       33.3252   28.3665    3.3972 H         1 UNK         0.0616 
    136 H136       36.2007   25.5542    2.6025 H         1 UNK         0.0634 
    137 H137       35.6180   27.1172    2.0854 H         1 UNK         0.0634 
@<TRIPOS>BOND
     1    1    2 1    
     2    1   72 1    
     3    1   73 1    
     4    1   74 1    
     5    2    3 2    
     6    2    4 am   BACKBONE|DICT|INTERRES
     7    4    5 1    
     8    4   75 1    
     9    5    6 1    
    10    5   35 1    
    11    5   76 1    
    12    6    7 1    
    13    6   77 1    
    14    6   78 1    
    15    7    8 1    
    16    8    9 1    
    17    8   79 1    
    18    8   80 1    
    19    9   10 ar   
    20    9   14 ar   
    21   10   11 ar   
    22   10   81 1    
    23   11   12 ar   
    24   11   71 1    
    25   12   13 ar   
    26   12   82 1    
    27   13   14 ar   
    28   13   15 1    
    29   14   83 1    
    30   15   16 1    
    31   15   84 1    
    32   15   85 1    
    33   16   17 1    
    34   17   18 1    
    35   17   86 1    
    36   17   87 1    
    37   18   19 1    
    38   18   37 1    
    39   18   88 1    
    40   19   20 am   BACKBONE|DICT|INTERRES
    41   19   89 1    
    42   20   21 2    
    43   20   22 1    
    44   22   23 1    
    45   22   24 1    
    46   22   90 1    
    47   23   91 1    
    48   23   92 1    
    49   23   93 1    
    50   24   25 am   BACKBONE|DICT|INTERRES
    51   24   94 1    
    52   25   26 2    
    53   25   27 1    
    54   27   28 1    
    55   27   29 1    
    56   27   95 1    
    57   28   96 1    
    58   28   97 1    
    59   28   98 1    
    60   29   30 am   BACKBONE|DICT|INTERRES
    61   29   99 1    
    62   30   31 2    
    63   30   32 1    
    64   32   33 1    
    65   32   34 1    
    66   32  100 1    
    67   33  101 1    
    68   33  102 1    
    69   33  103 1    
    70   34   35 am   BACKBONE|DICT|INTERRES
    71   34  104 1    
    72   35   36 2    
    73   37   38 2    
    74   37   39 am   BACKBONE|DICT|INTERRES
    75   39   40 1    
    76   39  105 1    
    77   40   41 1    
    78   40   42 1    
    79   40  106 1    
    80   41  107 1    
    81   41  108 1    
    82   41  109 1    
    83   42   43 2    
    84   42   44 am   BACKBONE|DICT|INTERRES
    85   44   45 1    
    86   44  110 1    
    87   45   46 1    
    88   45   47 1    
    89   45  111 1    
    90   46  112 1    
    91   46  113 1    
    92   46  114 1    
    93   47   48 2    
    94   47   49 am   BACKBONE|DICT|INTERRES
    95   49   50 1    
    96   49  115 1    
    97   50   51 1    
    98   50   52 1    
    99   50  116 1    
   100   51  117 1    
   101   51  118 1    
   102   51  119 1    
   103   52   53 2    
   104   52   54 am   BACKBONE|DICT|INTERRES
   105   54   55 1    
   106   54  120 1    
   107   55   56 1    
   108   55   57 1    
   109   55  121 1    
   110   56  122 1    
   111   56  123 1    
   112   56  124 1    
   113   57   58 2    
   114   57   59 am   BACKBONE|DICT|INTERRES
   115   59   60 1    
   116   59  125 1    
   117   60   61 1    
   118   60   62 1    
   119   60  126 1    
   120   61  127 1    
   121   61  128 1    
   122   61  129 1    
   123   62   63 2    
   124   62   64 am   BACKBONE|DICT|INTERRES
   125   64   65 1    
   126   64  130 1    
   127   65   66 1    
   128   65   69 1    
   129   65  131 1    
   130   66   67 am   BACKBONE|DICT|INTERRES
   131   66   68 2    
   132   67  132 1    
   133   67  133 1    
   134   69   70 1    
   135   69  134 1    
   136   69  135 1    
   137   70   71 1    
   138   71  136 1    
   139   71  137 1    
@<TRIPOS>SUBSTRUCTURE
     1 UNK         1 GROUP             0       ****    0 ROOT    
