@<TRIPOS>MOLECULE
3R136
137   139    1
SMALL
USER_CHARGES


@<TRIPOS>ATOM
      1 CA         28.7392   22.9232    1.0022 C.3       0 UNK        -0.1979 
      2 C          28.3406   24.3227    1.4407 C.2       0 UNK         0.4864 
      3 O          28.1780   25.2031    0.5931 O.2       0 UNK        -0.5359 
      4 N          28.1565   24.5301    2.7506 N.am      1 UNK        -0.4318 
      5 CA         27.8959   25.8091    3.4345 C.3       1 UNK         0.0824 
      6 C6         28.2546   25.7218    4.9456 C.3       12 UNK        -0.0944 
      7 S7         29.8657   24.9303    5.3104 S.3       12 UNK        -0.2672 
      8 C8         31.0639   26.2703    5.0241 C.3       12 UNK         0.0333 
      9 C9         31.9746   25.9542    3.8460 C.ar      12 UNK        -0.0807 
     10 C10        33.2556   25.4308    4.0481 C.ar      12 UNK        -0.0894 
     11 C11        34.0953   25.1676    2.9594 C.ar      12 UNK        -0.0804 
     12 C12        33.6329   25.4068    1.6598 C.ar      12 UNK        -0.0824 
     13 C13        32.3479   25.9158    1.4449 C.ar      12 UNK        -0.0762 
     14 C14        31.5347   26.1935    2.5438 C.ar      12 UNK        -0.0782 
     15 C15        31.8208   26.1284    0.0317 C.3       12 UNK         0.0230 
     16 S16        31.7919   27.8849   -0.4547 S.3       12 UNK        -0.2608 
     17 C17        30.1088   28.4209    0.0180 C.3       12 UNK        -0.0989 
     18 CA         29.1166   28.3442   -1.1674 C.3       5 UNK         0.0716 
     19 N          28.8283   26.9615   -1.5407 N.am      5 UNK        -0.4135 
     20 C          28.6241   26.5328   -2.7904 C.2       4 UNK         0.5031 
     21 O          28.7468   27.2390   -3.7924 O.2       4 UNK        -0.5229 
     22 CA         28.1890   25.0721   -2.9495 C.3       4 UNK         0.0329 
     23 CB         29.3516   24.1134   -2.6382 C.3       4 UNK        -0.2001 
     24 N          27.0524   24.7693   -2.0757 N.am      4 UNK        -0.4303 
     25 C          25.8151   24.4916   -2.5085 C.2       3 UNK         0.5044 
     26 O          25.4862   24.4875   -3.6957 O.2       3 UNK        -0.5152 
     27 CA         24.7618   24.1218   -1.4506 C.3       3 UNK         0.0319 
     28 CB         24.7986   22.6107   -1.1684 C.3       3 UNK        -0.2001 
     29 N          24.9100   24.8485   -0.1889 N.am      3 UNK        -0.4354 
     30 C          24.4987   26.1094    0.0167 C.2       2 UNK         0.4964 
     31 O          23.9774   26.8123   -0.8495 O.2       2 UNK        -0.5047 
     32 CA         24.6739   26.6614    1.4393 C.3       2 UNK         0.0288 
     33 CB         23.4804   26.2157    2.3124 C.3       2 UNK        -0.2113 
     34 N          25.9601   26.2125    1.9770 N.am      2 UNK        -0.4145 
     35 C          26.4751   26.3839    3.1984 C.2       1 UNK         0.5006 
     36 O          25.8900   26.9650    4.1143 O.2       1 UNK        -0.5103 
     37 C          27.7797   29.0141   -0.8112 C.2       5 UNK         0.5055 
     38 O          26.9189   28.3722   -0.2084 O.2       5 UNK        -0.5220 
     39 N          27.6325   30.2963   -1.1681 N.am      6 UNK        -0.4450 
     40 CA         26.4126   31.0856   -0.9502 C.3       6 UNK         0.0367 
     41 CB         26.4773   32.3492   -1.8250 C.3       6 UNK        -0.1929 
     42 C          26.1493   31.4639    0.5218 C.2       6 UNK         0.5070 
     43 O          25.0580   31.9420    0.8336 O.2       6 UNK        -0.5237 
     44 N          27.1425   31.2652    1.3924 N.am      7 UNK        -0.4739 
     45 CA         27.1026   31.5288    2.8254 C.3       7 UNK         0.0276 
     46 CB         27.4983   32.9961    3.0840 C.3       7 UNK        -0.1927 
     47 C          28.0542   30.5505    3.5265 C.2       7 UNK         0.5013 
     48 O          28.7309   29.7589    2.8599 O.2       7 UNK        -0.5193 
     49 N          28.1251   30.6428    4.8606 N.am      8 UNK        -0.4253 
     50 CA         29.0173   29.8608    5.7215 C.3       8 UNK         0.0242 
     51 CB         28.4791   29.8886    7.1638 C.3       8 UNK        -0.2000 
     52 C          30.4893   30.3155    5.6262 C.2       8 UNK         0.4948 
     53 O          31.0974   30.6803    6.6349 O.2       8 UNK        -0.5275 
     54 N          31.0423   30.2846    4.4086 N.am      9 UNK        -0.4246 
     55 CA         32.4177   30.6469    4.0650 C.3       9 UNK         0.0261 
     56 CB         32.4770   30.9539    2.5563 C.3       9 UNK        -0.1959 
     57 C          33.4116   29.5469    4.4847 C.2       9 UNK         0.5033 
     58 O          34.0332   28.9219    3.6253 O.2       9 UNK        -0.5390 
     59 N          33.5072   29.3142    5.8011 N.am      10 UNK        -0.4215 
     60 CA         34.3151   28.2773    6.4468 C.3       10 UNK         0.0240 
     61 CB         34.1434   28.3788    7.9708 C.3       10 UNK        -0.1982 
     62 C          35.8028   28.3318    6.0597 C.2       10 UNK         0.4970 
     63 O          36.4129   29.4019    6.1211 O.2       10 UNK        -0.4916 
     64 N          36.3480   27.1691    5.6874 N.am      11 UNK        -0.4279 
     65 CA         37.7321   26.9960    5.2200 C.3       11 UNK         0.1003 
     66 C          38.8004   26.9707    6.3521 C.2       11 UNK         0.5709 
     67 N          38.4256   26.9372    7.6257 N.am      11 UNK        -0.7358 
     68 O          39.9958   26.9918    6.0682 O.2       11 UNK        -0.4999 
     69 C69        37.8642   25.7583    4.2914 C.3       12 UNK        -0.0954 
     70 S70        36.7742   25.8607    2.8280 S.3       12 UNK        -0.2268 
     71 C71        35.4948   24.6104    3.1828 C.3       12 UNK         0.0203 
     72 H72        28.1090   22.5890    0.1789 H         1 UNK         0.0888 
     73 H73        29.7741   22.9222    0.6614 H         1 UNK         0.0888 
     74 H74        28.6477   22.2016    1.8137 H         1 UNK         0.0888 
     75 H75        28.2916   23.7519    3.3807 H         1 UNK         0.3017 
     76 H76        28.5473   26.5600    2.9925 H         1 UNK         0.0873 
     77 H77        27.4956   25.1362    5.4680 H         1 UNK         0.0745 
     78 H78        28.2310   26.7068    5.4110 H         1 UNK         0.0745 
     79 H79        31.6503   26.4164    5.9319 H         1 UNK         0.0705 
     80 H80        30.5492   27.2123    4.8409 H         1 UNK         0.0705 
     81 H81        33.5976   25.2289    5.0530 H         1 UNK         0.1334 
     82 H82        34.2765   25.1936    0.8173 H         1 UNK         0.1417 
     83 H83        30.5507   26.5911    2.3836 H         1 UNK         0.1562 
     84 H84        30.8236   25.6988   -0.0551 H         1 UNK         0.0748 
     85 H85        32.4413   25.5864   -0.6834 H         1 UNK         0.0748 
     86 H86        30.1941   29.4480    0.3781 H         1 UNK         0.0940 
     87 H87        29.7356   27.8436    0.8620 H         1 UNK         0.0940 
     88 H88        29.5527   28.8739   -2.0173 H         1 UNK         0.0703 
     89 H89        28.6299   26.3340   -0.7652 H         1 UNK         0.3081 
     90 H90        27.9167   24.9269   -3.9971 H         1 UNK         0.0719 
     91 H91        30.2142   24.3285   -3.2703 H         1 UNK         0.0809 
     92 H92        29.6801   24.1889   -1.6022 H         1 UNK         0.0809 
     93 H93        29.0663   23.0774   -2.8214 H         1 UNK         0.0809 
     94 H94        27.2292   24.8044   -1.0781 H         1 UNK         0.2990 
     95 H95        23.7808   24.3583   -1.8691 H         1 UNK         0.0690 
     96 H96        24.0006   22.3148   -0.4870 H         1 UNK         0.0788 
     97 H97        25.7478   22.3015   -0.7297 H         1 UNK         0.0788 
     98 H98        24.6642   22.0393   -2.0881 H         1 UNK         0.0788 
     99 H99        25.2713   24.3265    0.5955 H         1 UNK         0.2993 
    100 H100       24.6940   27.7514    1.3789 H         1 UNK         0.0949 
    101 H101       23.5024   25.1435    2.5104 H         1 UNK         0.0767 
    102 H102       23.4629   26.7341    3.2704 H         1 UNK         0.0767 
    103 H103       22.5320   26.4379    1.8208 H         1 UNK         0.0767 
    104 H104       26.6059   25.8371    1.2857 H         1 UNK         0.3013 
    105 H105       28.3900   30.7620   -1.6479 H         1 UNK         0.3121 
    106 H106       25.5608   30.4866   -1.2804 H         1 UNK         0.0774 
    107 H107       25.5670   32.9421   -1.7240 H         1 UNK         0.0815 
    108 H108       27.3147   32.9902   -1.5467 H         1 UNK         0.0815 
    109 H109       26.5799   32.0980   -2.8809 H         1 UNK         0.0815 
    110 H110       27.9752   30.7809    1.0838 H         1 UNK         0.2987 
    111 H111       26.0945   31.3429    3.2027 H         1 UNK         0.0949 
    112 H112       26.8411   33.6832    2.5506 H         1 UNK         0.0806 
    113 H113       27.4298   33.2502    4.1421 H         1 UNK         0.0806 
    114 H114       28.5211   33.1984    2.7635 H         1 UNK         0.0806 
    115 H115       27.5585   31.3378    5.3253 H         1 UNK         0.3010 
    116 H116       28.9853   28.8271    5.3808 H         1 UNK         0.0829 
    117 H117       27.4632   29.4965    7.2161 H         1 UNK         0.0813 
    118 H118       29.0944   29.2739    7.8226 H         1 UNK         0.0813 
    119 H119       28.4721   30.8995    7.5733 H         1 UNK         0.0813 
    120 H120       30.4473   29.9774    3.6433 H         1 UNK         0.3038 
    121 H121       32.6865   31.5577    4.6044 H         1 UNK         0.0769 
    122 H122       31.7977   31.7629    2.2874 H         1 UNK         0.0811 
    123 H123       32.2131   30.0808    1.9574 H         1 UNK         0.0811 
    124 H124       33.4807   31.2606    2.2596 H         1 UNK         0.0811 
    125 H125       32.9109   29.8720    6.4052 H         1 UNK         0.3204 
    126 H126       33.9083   27.3189    6.1257 H         1 UNK         0.0748 
    127 H127       34.7052   27.5961    8.4824 H         1 UNK         0.0771 
    128 H128       34.4978   29.3376    8.3519 H         1 UNK         0.0771 
    129 H129       33.0983   28.2682    8.2615 H         1 UNK         0.0771 
    130 H130       35.7771   26.3390    5.6731 H         1 UNK         0.2980 
    131 H131       37.9782   27.8720    4.6166 H         1 UNK         0.0545 
    132 H132       39.1296   26.9264    8.3468 H         1 UNK         0.3459 
    133 H133       37.4495   26.9258    7.8719 H         1 UNK         0.3459 
    134 H134       38.8864   25.6752    3.9176 H         1 UNK         0.0616 
    135 H135       37.6744   24.8371    4.8441 H         1 UNK         0.0616 
    136 H136       35.6532   23.7493    2.5321 H         1 UNK         0.0634 
    137 H137       35.5914   24.2401    4.2039 H         1 UNK         0.0634 
@<TRIPOS>BOND
     1    1    2 1    
     2    1   72 1    
     3    1   73 1    
     4    1   74 1    
     5    2    3 2    
     6    2    4 am   BACKBONE|DICT|INTERRES
     7    4    5 1    
     8    4   75 1    
     9    5    6 1    
    10    5   35 1    
    11    5   76 1    
    12    6    7 1    
    13    6   77 1    
    14    6   78 1    
    15    7    8 1    
    16    8    9 1    
    17    8   79 1    
    18    8   80 1    
    19    9   10 ar   
    20    9   14 ar   
    21   10   11 ar   
    22   10   81 1    
    23   11   12 ar   
    24   11   71 1    
    25   12   13 ar   
    26   12   82 1    
    27   13   14 ar   
    28   13   15 1    
    29   14   83 1    
    30   15   16 1    
    31   15   84 1    
    32   15   85 1    
    33   16   17 1    
    34   17   18 1    
    35   17   86 1    
    36   17   87 1    
    37   18   19 1    
    38   18   37 1    
    39   18   88 1    
    40   19   20 am   BACKBONE|DICT|INTERRES
    41   19   89 1    
    42   20   21 2    
    43   20   22 1    
    44   22   23 1    
    45   22   24 1    
    46   22   90 1    
    47   23   91 1    
    48   23   92 1    
    49   23   93 1    
    50   24   25 am   BACKBONE|DICT|INTERRES
    51   24   94 1    
    52   25   26 2    
    53   25   27 1    
    54   27   28 1    
    55   27   29 1    
    56   27   95 1    
    57   28   96 1    
    58   28   97 1    
    59   28   98 1    
    60   29   30 am   BACKBONE|DICT|INTERRES
    61   29   99 1    
    62   30   31 2    
    63   30   32 1    
    64   32   33 1    
    65   32   34 1    
    66   32  100 1    
    67   33  101 1    
    68   33  102 1    
    69   33  103 1    
    70   34   35 am   BACKBONE|DICT|INTERRES
    71   34  104 1    
    72   35   36 2    
    73   37   38 2    
    74   37   39 am   BACKBONE|DICT|INTERRES
    75   39   40 1    
    76   39  105 1    
    77   40   41 1    
    78   40   42 1    
    79   40  106 1    
    80   41  107 1    
    81   41  108 1    
    82   41  109 1    
    83   42   43 2    
    84   42   44 am   BACKBONE|DICT|INTERRES
    85   44   45 1    
    86   44  110 1    
    87   45   46 1    
    88   45   47 1    
    89   45  111 1    
    90   46  112 1    
    91   46  113 1    
    92   46  114 1    
    93   47   48 2    
    94   47   49 am   BACKBONE|DICT|INTERRES
    95   49   50 1    
    96   49  115 1    
    97   50   51 1    
    98   50   52 1    
    99   50  116 1    
   100   51  117 1    
   101   51  118 1    
   102   51  119 1    
   103   52   53 2    
   104   52   54 am   BACKBONE|DICT|INTERRES
   105   54   55 1    
   106   54  120 1    
   107   55   56 1    
   108   55   57 1    
   109   55  121 1    
   110   56  122 1    
   111   56  123 1    
   112   56  124 1    
   113   57   58 2    
   114   57   59 am   BACKBONE|DICT|INTERRES
   115   59   60 1    
   116   59  125 1    
   117   60   61 1    
   118   60   62 1    
   119   60  126 1    
   120   61  127 1    
   121   61  128 1    
   122   61  129 1    
   123   62   63 2    
   124   62   64 am   BACKBONE|DICT|INTERRES
   125   64   65 1    
   126   64  130 1    
   127   65   66 1    
   128   65   69 1    
   129   65  131 1    
   130   66   67 am   BACKBONE|DICT|INTERRES
   131   66   68 2    
   132   67  132 1    
   133   67  133 1    
   134   69   70 1    
   135   69  134 1    
   136   69  135 1    
   137   70   71 1    
   138   71  136 1    
   139   71  137 1    
@<TRIPOS>SUBSTRUCTURE
     1 UNK         1 GROUP             0       ****    0 ROOT    
