@<TRIPOS>MOLECULE
3R136
137   139    1
SMALL
USER_CHARGES


@<TRIPOS>ATOM
      1 CA         28.1383   21.9479   -2.1793 C.3       0 UNK        -0.1979 
      2 C          27.9607   22.0344   -0.6714 C.2       0 UNK         0.4864 
      3 O          27.2093   21.2464   -0.0957 O.2       0 UNK        -0.5359 
      4 N          28.6325   22.9998   -0.0293 N.am      1 UNK        -0.4318 
      5 CA         28.6496   23.2723    1.4149 C.3       1 UNK         0.0824 
      6 C6         29.0970   22.0520    2.2721 C.3       12 UNK        -0.0944 
      7 S7         30.1278   22.5092    3.7076 S.3       12 UNK        -0.2672 
      8 C8         31.8215   22.1889    3.1007 C.3       12 UNK         0.0333 
      9 C9         32.3908   23.3712    2.3245 C.ar      12 UNK        -0.0807 
     10 C10        33.3483   24.2090    2.9058 C.ar      12 UNK        -0.0894 
     11 C11        33.8787   25.2864    2.1881 C.ar      12 UNK        -0.0804 
     12 C12        33.3973   25.5637    0.9025 C.ar      12 UNK        -0.0824 
     13 C13        32.4438   24.7300    0.3088 C.ar      12 UNK        -0.0762 
     14 C14        31.9799   23.6153    1.0120 C.ar      12 UNK        -0.0782 
     15 C15        31.9410   24.9899   -1.1056 C.3       12 UNK         0.0230 
     16 S16        30.2341   25.6420   -1.1217 S.3       12 UNK        -0.2608 
     17 C17        30.4788   27.4212   -1.4648 C.3       12 UNK        -0.0989 
     18 CA         29.7483   28.3826   -0.4936 C.3       5 UNK         0.0716 
     19 N          28.2918   28.1849   -0.4587 N.am      5 UNK        -0.4135 
     20 C          27.4211   28.9498    0.2148 C.2       4 UNK         0.5031 
     21 O          27.7659   29.8276    1.0059 O.2       4 UNK        -0.5229 
     22 CA         25.9109   28.7559   -0.0223 C.3       4 UNK         0.0329 
     23 CB         25.4009   29.7898   -1.0443 C.3       4 UNK        -0.2001 
     24 N          25.4465   27.4074   -0.3767 N.am      4 UNK        -0.4303 
     25 C          25.7241   26.6573   -1.4505 C.2       3 UNK         0.5044 
     26 O          26.5642   26.9621   -2.2982 O.2       3 UNK        -0.5152 
     27 CA         24.9334   25.3380   -1.5824 C.3       3 UNK         0.0319 
     28 CB         25.3424   24.5304   -2.8282 C.3       3 UNK        -0.2001 
     29 N          25.0737   24.4844   -0.4005 N.am      3 UNK        -0.4354 
     30 C          24.4680   24.6601    0.7837 C.2       2 UNK         0.4964 
     31 O          23.6626   25.5640    1.0084 O.2       2 UNK        -0.5047 
     32 CA         24.8620   23.6955    1.9176 C.3       2 UNK         0.0288 
     33 CB         23.8795   22.5163    1.9919 C.3       2 UNK        -0.2113 
     34 N          26.2251   23.1821    1.7608 N.am      2 UNK        -0.4145 
     35 C          27.3350   23.9237    1.8773 C.2       1 UNK         0.5006 
     36 O          27.3363   25.1004    2.2418 O.2       1 UNK        -0.5103 
     37 C          30.4238   28.4338    0.8897 C.2       5 UNK         0.5055 
     38 O          31.2607   29.3107    1.1103 O.2       5 UNK        -0.5220 
     39 N          30.0201   27.5419    1.8054 N.am      6 UNK        -0.4450 
     40 CA         30.5502   27.4940    3.1685 C.3       6 UNK         0.0367 
     41 CB         30.1110   26.1999    3.8609 C.3       6 UNK        -0.1929 
     42 C          30.1575   28.7151    4.0109 C.2       6 UNK         0.5070 
     43 O          30.9679   29.1785    4.8109 O.2       6 UNK        -0.5237 
     44 N          28.9381   29.2300    3.8070 N.am      7 UNK        -0.4739 
     45 CA         28.4468   30.4435    4.4594 C.3       7 UNK         0.0276 
     46 CB         26.9142   30.5068    4.3571 C.3       7 UNK        -0.1927 
     47 C          29.0931   31.7030    3.8649 C.2       7 UNK         0.5013 
     48 O          29.5018   32.5843    4.6205 O.2       7 UNK        -0.5193 
     49 N          29.1976   31.7487    2.5290 N.am      8 UNK        -0.4253 
     50 CA         29.7920   32.8472    1.7653 C.3       8 UNK         0.0242 
     51 CB         29.5523   32.6188    0.2641 C.3       8 UNK        -0.2000 
     52 C          31.2884   33.0456    2.0551 C.2       8 UNK         0.4948 
     53 O          31.7161   34.1825    2.2587 O.2       8 UNK        -0.5275 
     54 N          32.0517   31.9444    2.0853 N.am      9 UNK        -0.4246 
     55 CA         33.4855   31.9491    2.3901 C.3       9 UNK         0.0261 
     56 CB         34.1510   30.7649    1.6718 C.3       9 UNK        -0.1959 
     57 C          33.7970   31.9319    3.9001 C.2       9 UNK         0.5033 
     58 O          34.9626   32.1054    4.2598 O.2       9 UNK        -0.5390 
     59 N          32.7741   31.7314    4.7472 N.am      10 UNK        -0.4215 
     60 CA         32.8294   31.6229    6.2122 C.3       10 UNK         0.0240 
     61 CB         33.2207   32.9725    6.8513 C.3       10 UNK        -0.1982 
     62 C          33.7119   30.4472    6.6781 C.2       10 UNK         0.4970 
     63 O          34.6045   30.6238    7.5103 O.2       10 UNK        -0.4916 
     64 N          33.4508   29.2709    6.1011 N.am      11 UNK        -0.4279 
     65 CA         34.1569   28.0111    6.3624 C.3       11 UNK         0.1003 
     66 C          33.8101   27.4158    7.7534 C.2       11 UNK         0.5709 
     67 N          34.7336   26.6799    8.3574 N.am      11 UNK        -0.7358 
     68 O          32.7076   27.5805    8.2734 O.2       11 UNK        -0.4999 
     69 C69        33.8964   26.9804    5.2329 C.3       12 UNK        -0.0954 
     70 S70        34.4400   27.6112    3.6102 S.3       12 UNK        -0.2268 
     71 C71        35.0191   26.1093    2.7725 C.3       12 UNK         0.0203 
     72 H72        28.6593   22.8181   -2.5789 H         1 UNK         0.0888 
     73 H73        28.7135   21.0588   -2.4359 H         1 UNK         0.0888 
     74 H74        27.1684   21.8771   -2.6707 H         1 UNK         0.0888 
     75 H75        29.1777   23.6544   -0.5782 H         1 UNK         0.3017 
     76 H76        29.3990   24.0547    1.5290 H         1 UNK         0.0873 
     77 H77        28.2412   21.4760    2.6284 H         1 UNK         0.0745 
     78 H78        29.6681   21.3509    1.6623 H         1 UNK         0.0745 
     79 H79        31.8413   21.2894    2.4839 H         1 UNK         0.0705 
     80 H80        32.4548   21.9715    3.9621 H         1 UNK         0.0705 
     81 H81        33.7025   24.0071    3.9074 H         1 UNK         0.1334 
     82 H82        33.7905   26.4089    0.3542 H         1 UNK         0.1417 
     83 H83        31.2810   22.9417    0.5397 H         1 UNK         0.1562 
     84 H84        31.9538   24.0512   -1.6615 H         1 UNK         0.0748 
     85 H85        32.6160   25.6566   -1.6436 H         1 UNK         0.0748 
     86 H86        31.5443   27.6575   -1.4872 H         1 UNK         0.0940 
     87 H87        30.1257   27.6048   -2.4809 H         1 UNK         0.0940 
     88 H88        29.8796   29.3833   -0.9102 H         1 UNK         0.0703 
     89 H89        27.9046   27.5266   -1.1297 H         1 UNK         0.3081 
     90 H90        25.4308   28.9791    0.9319 H         1 UNK         0.0719 
     91 H91        25.8287   29.6274   -2.0343 H         1 UNK         0.0809 
     92 H92        24.3155   29.7536   -1.1375 H         1 UNK         0.0809 
     93 H93        25.6650   30.8037   -0.7398 H         1 UNK         0.0809 
     94 H94        24.7708   27.0076    0.2690 H         1 UNK         0.2990 
     95 H95        23.8802   25.6053   -1.6915 H         1 UNK         0.0690 
     96 H96        26.4014   24.2725   -2.8113 H         1 UNK         0.0788 
     97 H97        25.1641   25.1040   -3.7389 H         1 UNK         0.0788 
     98 H98        24.7695   23.6067   -2.9125 H         1 UNK         0.0788 
     99 H99        25.7281   23.7210   -0.4785 H         1 UNK         0.2993 
    100 H100       24.8110   24.2512    2.8566 H         1 UNK         0.0949 
    101 H101       23.9016   21.9135    1.0829 H         1 UNK         0.0767 
    102 H102       24.1089   21.8625    2.8337 H         1 UNK         0.0767 
    103 H103       22.8558   22.8690    2.1261 H         1 UNK         0.0767 
    104 H104       26.3310   22.2488    1.3724 H         1 UNK         0.3013 
    105 H105       29.3121   26.8665    1.5534 H         1 UNK         0.3121 
    106 H106       31.6375   27.4813    3.0924 H         1 UNK         0.0774 
    107 H107       30.5300   26.1281    4.8650 H         1 UNK         0.0815 
    108 H108       29.0274   26.1362    3.9576 H         1 UNK         0.0815 
    109 H109       30.4580   25.3325    3.3042 H         1 UNK         0.0815 
    110 H110       28.3580   28.8316    3.0814 H         1 UNK         0.2987 
    111 H111       28.7138   30.3997    5.5180 H         1 UNK         0.0949 
    112 H112       26.5746   30.5498    3.3217 H         1 UNK         0.0806 
    113 H113       26.4500   29.6392    4.8261 H         1 UNK         0.0806 
    114 H114       26.5280   31.3930    4.8625 H         1 UNK         0.0806 
    115 H115       28.7936   30.9840    1.9902 H         1 UNK         0.3010 
    116 H116       29.2752   33.7643    2.0561 H         1 UNK         0.0829 
    117 H117       29.9547   33.4433   -0.3260 H         1 UNK         0.0813 
    118 H118       30.0292   31.7029   -0.0853 H         1 UNK         0.0813 
    119 H119       28.4879   32.5470    0.0389 H         1 UNK         0.0813 
    120 H120       31.6382   31.0417    1.8578 H         1 UNK         0.3038 
    121 H121       33.9286   32.8638    1.9903 H         1 UNK         0.0769 
    122 H122       34.0445   30.8483    0.5903 H         1 UNK         0.0811 
    123 H123       33.7084   29.8175    1.9745 H         1 UNK         0.0811 
    124 H124       35.2182   30.7141    1.8914 H         1 UNK         0.0811 
    125 H125       31.8603   31.5810    4.3415 H         1 UNK         0.3204 
    126 H126       31.8141   31.3892    6.5369 H         1 UNK         0.0748 
    127 H127       33.1574   32.9212    7.9389 H         1 UNK         0.0771 
    128 H128       34.2411   33.2623    6.5987 H         1 UNK         0.0771 
    129 H129       32.5544   33.7713    6.5253 H         1 UNK         0.0771 
    130 H130       32.6399   29.2072    5.4887 H         1 UNK         0.2980 
    131 H131       35.2248   28.2393    6.3657 H         1 UNK         0.0545 
    132 H132       34.5242   26.2728    9.2554 H         1 UNK         0.3459 
    133 H133       35.6377   26.5288    7.9378 H         1 UNK         0.3459 
    134 H134       34.4235   26.0484    5.4434 H         1 UNK         0.0616 
    135 H135       32.8372   26.7291    5.1732 H         1 UNK         0.0616 
    136 H136       35.6960   26.4061    1.9700 H         1 UNK         0.0634 
    137 H137       35.6176   25.5084    3.4587 H         1 UNK         0.0634 
@<TRIPOS>BOND
     1    1    2 1    
     2    1   72 1    
     3    1   73 1    
     4    1   74 1    
     5    2    3 2    
     6    2    4 am   BACKBONE|DICT|INTERRES
     7    4    5 1    
     8    4   75 1    
     9    5    6 1    
    10    5   35 1    
    11    5   76 1    
    12    6    7 1    
    13    6   77 1    
    14    6   78 1    
    15    7    8 1    
    16    8    9 1    
    17    8   79 1    
    18    8   80 1    
    19    9   10 ar   
    20    9   14 ar   
    21   10   11 ar   
    22   10   81 1    
    23   11   12 ar   
    24   11   71 1    
    25   12   13 ar   
    26   12   82 1    
    27   13   14 ar   
    28   13   15 1    
    29   14   83 1    
    30   15   16 1    
    31   15   84 1    
    32   15   85 1    
    33   16   17 1    
    34   17   18 1    
    35   17   86 1    
    36   17   87 1    
    37   18   19 1    
    38   18   37 1    
    39   18   88 1    
    40   19   20 am   BACKBONE|DICT|INTERRES
    41   19   89 1    
    42   20   21 2    
    43   20   22 1    
    44   22   23 1    
    45   22   24 1    
    46   22   90 1    
    47   23   91 1    
    48   23   92 1    
    49   23   93 1    
    50   24   25 am   BACKBONE|DICT|INTERRES
    51   24   94 1    
    52   25   26 2    
    53   25   27 1    
    54   27   28 1    
    55   27   29 1    
    56   27   95 1    
    57   28   96 1    
    58   28   97 1    
    59   28   98 1    
    60   29   30 am   BACKBONE|DICT|INTERRES
    61   29   99 1    
    62   30   31 2    
    63   30   32 1    
    64   32   33 1    
    65   32   34 1    
    66   32  100 1    
    67   33  101 1    
    68   33  102 1    
    69   33  103 1    
    70   34   35 am   BACKBONE|DICT|INTERRES
    71   34  104 1    
    72   35   36 2    
    73   37   38 2    
    74   37   39 am   BACKBONE|DICT|INTERRES
    75   39   40 1    
    76   39  105 1    
    77   40   41 1    
    78   40   42 1    
    79   40  106 1    
    80   41  107 1    
    81   41  108 1    
    82   41  109 1    
    83   42   43 2    
    84   42   44 am   BACKBONE|DICT|INTERRES
    85   44   45 1    
    86   44  110 1    
    87   45   46 1    
    88   45   47 1    
    89   45  111 1    
    90   46  112 1    
    91   46  113 1    
    92   46  114 1    
    93   47   48 2    
    94   47   49 am   BACKBONE|DICT|INTERRES
    95   49   50 1    
    96   49  115 1    
    97   50   51 1    
    98   50   52 1    
    99   50  116 1    
   100   51  117 1    
   101   51  118 1    
   102   51  119 1    
   103   52   53 2    
   104   52   54 am   BACKBONE|DICT|INTERRES
   105   54   55 1    
   106   54  120 1    
   107   55   56 1    
   108   55   57 1    
   109   55  121 1    
   110   56  122 1    
   111   56  123 1    
   112   56  124 1    
   113   57   58 2    
   114   57   59 am   BACKBONE|DICT|INTERRES
   115   59   60 1    
   116   59  125 1    
   117   60   61 1    
   118   60   62 1    
   119   60  126 1    
   120   61  127 1    
   121   61  128 1    
   122   61  129 1    
   123   62   63 2    
   124   62   64 am   BACKBONE|DICT|INTERRES
   125   64   65 1    
   126   64  130 1    
   127   65   66 1    
   128   65   69 1    
   129   65  131 1    
   130   66   67 am   BACKBONE|DICT|INTERRES
   131   66   68 2    
   132   67  132 1    
   133   67  133 1    
   134   69   70 1    
   135   69  134 1    
   136   69  135 1    
   137   70   71 1    
   138   71  136 1    
   139   71  137 1    
@<TRIPOS>SUBSTRUCTURE
     1 UNK         1 GROUP             0       ****    0 ROOT    
