@<TRIPOS>MOLECULE
3R136
137   139    1
SMALL
USER_CHARGES


@<TRIPOS>ATOM
      1 CA         28.9146   20.2574    3.4117 C.3       0 UNK        -0.1979 
      2 C          28.5014   20.3067    1.9487 C.2       0 UNK         0.4864 
      3 O          27.6520   19.5215    1.5242 O.2       0 UNK        -0.5359 
      4 N          29.0818   21.2292    1.1703 N.am      1 UNK        -0.4318 
      5 CA         28.8794   21.3783   -0.2776 C.3       1 UNK         0.0824 
      6 C6         30.1315   21.9588   -0.9910 C.3       12 UNK        -0.0944 
      7 S7         31.6554   21.0252   -0.5951 S.3       12 UNK        -0.2672 
      8 C8         32.9338   22.3288   -0.4762 C.3       12 UNK         0.0333 
      9 C9         32.5642   23.4988    0.4334 C.ar      12 UNK        -0.0807 
     10 C10        32.8027   24.8078    0.0001 C.ar      12 UNK        -0.0894 
     11 C11        32.4385   25.9026    0.7899 C.ar      12 UNK        -0.0804 
     12 C12        31.8269   25.6700    2.0247 C.ar      12 UNK        -0.0824 
     13 C13        31.5660   24.3719    2.4692 C.ar      12 UNK        -0.0762 
     14 C14        31.9682   23.2886    1.6826 C.ar      12 UNK        -0.0782 
     15 C15        30.8247   24.1380    3.7803 C.3       12 UNK         0.0230 
     16 S16        29.0544   23.8079    3.4766 S.3       12 UNK        -0.2608 
     17 C17        28.2143   25.2953    4.1257 C.3       12 UNK        -0.0989 
     18 CA         28.4878   26.5608    3.2848 C.3       5 UNK         0.0716 
     19 N          28.1434   26.4088    1.8716 N.am      5 UNK        -0.4135 
     20 C          28.5863   27.2391    0.9174 C.2       4 UNK         0.5031 
     21 O          29.3225   28.1991    1.1476 O.2       4 UNK        -0.5229 
     22 CA         28.1481   26.9638   -0.5315 C.3       4 UNK         0.0329 
     23 CB         29.1965   26.0977   -1.2457 C.3       4 UNK        -0.2001 
     24 N          26.8344   26.3217   -0.6240 N.am      4 UNK        -0.4303 
     25 C          25.6806   26.9269   -0.3014 C.2       3 UNK         0.5044 
     26 O          25.6101   28.1083    0.0388 O.2       3 UNK        -0.5152 
     27 CA         24.3778   26.1053   -0.3723 C.3       3 UNK         0.0319 
     28 CB         23.4671   26.6340   -1.4939 C.3       3 UNK        -0.2001 
     29 N          24.5553   24.6624   -0.5563 N.am      3 UNK        -0.4354 
     30 C          25.1063   23.8153    0.3232 C.2       2 UNK         0.4964 
     31 O          25.5913   24.1683    1.4000 O.2       2 UNK        -0.5047 
     32 CA         25.1287   22.3220   -0.0653 C.3       2 UNK         0.0288 
     33 CB         24.5122   22.0117   -1.4500 C.3       2 UNK        -0.2113 
     34 N          26.4741   21.7480    0.0236 N.am      2 UNK        -0.4145 
     35 C          27.5919   22.1803   -0.5786 C.2       1 UNK         0.5006 
     36 O          27.6289   23.1626   -1.3241 O.2       1 UNK        -0.5103 
     37 C          27.8247   27.8203    3.8716 C.2       5 UNK         0.5055 
     38 O          26.6193   28.0152    3.7037 O.2       5 UNK        -0.5220 
     39 N          28.6504   28.6516    4.5209 N.am      6 UNK        -0.4450 
     40 CA         28.3581   29.9810    5.0665 C.3       6 UNK         0.0367 
     41 CB         27.2662   29.9148    6.1556 C.3       6 UNK        -0.1929 
     42 C          28.0705   31.0626    4.0024 C.2       6 UNK         0.5070 
     43 O          27.5726   32.1304    4.3623 O.2       6 UNK        -0.5237 
     44 N          28.4103   30.8144    2.7261 N.am      7 UNK        -0.4739 
     45 CA         28.2782   31.7990    1.6412 C.3       7 UNK         0.0276 
     46 CB         28.2833   31.0780    0.2841 C.3       7 UNK        -0.1927 
     47 C          29.3680   32.8885    1.6708 C.2       7 UNK         0.5013 
     48 O          29.1763   33.9502    1.0764 O.2       7 UNK        -0.5193 
     49 N          30.4811   32.6125    2.3571 N.am      8 UNK        -0.4253 
     50 CA         31.5991   33.5155    2.6067 C.3       8 UNK         0.0242 
     51 CB         32.6318   33.3918    1.4723 C.3       8 UNK        -0.2000 
     52 C          32.2110   33.1239    3.9550 C.2       8 UNK         0.4948 
     53 O          32.0230   31.9853    4.3900 O.2       8 UNK        -0.5275 
     54 N          32.9545   34.0471    4.5804 N.am      9 UNK        -0.4246 
     55 CA         33.5662   33.8741    5.9066 C.3       9 UNK         0.0261 
     56 CB         34.2545   35.1818    6.3304 C.3       9 UNK        -0.1959 
     57 C          34.5476   32.6912    6.0062 C.2       9 UNK         0.5033 
     58 O          34.5753   32.0118    7.0330 O.2       9 UNK        -0.5390 
     59 N          35.2994   32.4379    4.9262 N.am      10 UNK        -0.4215 
     60 CA         36.2048   31.2910    4.7863 C.3       10 UNK         0.0240 
     61 CB         37.1767   31.5662    3.6263 C.3       10 UNK        -0.1982 
     62 C          35.4772   29.9478    4.5690 C.2       10 UNK         0.4970 
     63 O          36.1098   28.8986    4.6940 O.2       10 UNK        -0.4916 
     64 N          34.1829   30.0052    4.2399 N.am      11 UNK        -0.4279 
     65 CA         33.2947   28.8726    3.9577 C.3       11 UNK         0.1003 
     66 C          32.2245   28.6626    5.0674 C.2       11 UNK         0.5709 
     67 N          32.2982   29.3333    6.2110 N.am      11 UNK        -0.7358 
     68 O          31.3119   27.8580    4.8986 O.2       11 UNK        -0.4999 
     69 C69        32.6793   29.0354    2.5378 C.3       12 UNK        -0.0954 
     70 S70        33.7825   28.3324    1.2632 S.3       12 UNK        -0.2268 
     71 C71        32.6387   27.3236    0.2647 C.3       12 UNK         0.0203 
     72 H72        28.1293   20.6801    4.0379 H         1 UNK         0.0888 
     73 H73        29.0822   19.2263    3.7217 H         1 UNK         0.0888 
     74 H74        29.8337   20.8147    3.5913 H         1 UNK         0.0888 
     75 H75        29.7095   21.9016    1.5860 H         1 UNK         0.3017 
     76 H76        28.7162   20.3835   -0.6982 H         1 UNK         0.0873 
     77 H77        29.9953   21.9368   -2.0737 H         1 UNK         0.0745 
     78 H78        30.2609   23.0077   -0.7273 H         1 UNK         0.0745 
     79 H79        33.1432   22.6841   -1.4864 H         1 UNK         0.0705 
     80 H80        33.8582   21.8801   -0.1108 H         1 UNK         0.0705 
     81 H81        33.2567   24.9759   -0.9671 H         1 UNK         0.1334 
     82 H82        31.5383   26.5017    2.6397 H         1 UNK         0.1417 
     83 H83        31.7878   22.2799    2.0269 H         1 UNK         0.1562 
     84 H84        30.9453   24.9896    4.4520 H         1 UNK         0.0748 
     85 H85        31.2591   23.2814    4.2977 H         1 UNK         0.0748 
     86 H86        28.5282   25.4454    5.1606 H         1 UNK         0.0940 
     87 H87        27.1425   25.0893    4.1589 H         1 UNK         0.0940 
     88 H88        29.5595   26.7285    3.3253 H         1 UNK         0.0703 
     89 H89        27.5084   25.6589    1.6333 H         1 UNK         0.3081 
     90 H90        28.0899   27.9240   -1.0486 H         1 UNK         0.0719 
     91 H91        30.1507   26.6200   -1.3148 H         1 UNK         0.0809 
     92 H92        28.8893   25.8480   -2.2613 H         1 UNK         0.0809 
     93 H93        29.3767   25.1665   -0.7088 H         1 UNK         0.0809 
     94 H94        26.8182   25.3468   -0.8976 H         1 UNK         0.2990 
     95 H95        23.8638   26.2523    0.5799 H         1 UNK         0.0690 
     96 H96        22.5018   26.1272   -1.4954 H         1 UNK         0.0788 
     97 H97        23.9202   26.5005   -2.4771 H         1 UNK         0.0788 
     98 H98        23.2685   27.6996   -1.3692 H         1 UNK         0.0788 
     99 H99        24.2118   24.2771   -1.4244 H         1 UNK         0.2993 
    100 H100       24.5266   21.8105    0.6872 H         1 UNK         0.0949 
    101 H101       23.4709   22.3322   -1.5049 H         1 UNK         0.0767 
    102 H102       25.0582   22.4944   -2.2619 H         1 UNK         0.0767 
    103 H103       24.5199   20.9393   -1.6459 H         1 UNK         0.0767 
    104 H104       26.5765   20.9449    0.6375 H         1 UNK         0.3013 
    105 H105       29.6237   28.3605    4.6171 H         1 UNK         0.3121 
    106 H106       29.2804   30.2996    5.5551 H         1 UNK         0.0774 
    107 H107       27.1801   30.8664    6.6815 H         1 UNK         0.0815 
    108 H108       26.2858   29.6900    5.7350 H         1 UNK         0.0815 
    109 H109       27.4950   29.1547    6.9024 H         1 UNK         0.0815 
    110 H110       28.7908   29.9085    2.4752 H         1 UNK         0.2987 
    111 H111       27.3142   32.3013    1.7494 H         1 UNK         0.0949 
    112 H112       27.5145   30.3061    0.2400 H         1 UNK         0.0806 
    113 H113       28.0866   31.7778   -0.5291 H         1 UNK         0.0806 
    114 H114       29.2465   30.6087    0.0806 H         1 UNK         0.0806 
    115 H115       30.5332   31.7442    2.8749 H         1 UNK         0.3010 
    116 H116       31.2340   34.5428    2.6722 H         1 UNK         0.0829 
    117 H117       32.1923   33.6499    0.5086 H         1 UNK         0.0813 
    118 H118       33.4756   34.0641    1.6315 H         1 UNK         0.0813 
    119 H119       33.0294   32.3789    1.3957 H         1 UNK         0.0813 
    120 H120       33.0682   34.9527    4.1468 H         1 UNK         0.3038 
    121 H121       32.7551   33.6757    6.6106 H         1 UNK         0.0769 
    122 H122       35.0525   35.4620    5.6417 H         1 UNK         0.0811 
    123 H123       34.6993   35.0851    7.3221 H         1 UNK         0.0811 
    124 H124       33.5445   36.0078    6.3770 H         1 UNK         0.0811 
    125 H125       35.2120   33.0512    4.1287 H         1 UNK         0.3204 
    126 H126       36.7868   31.1991    5.7059 H         1 UNK         0.0748 
    127 H127       37.8947   30.7522    3.5160 H         1 UNK         0.0771 
    128 H128       36.6521   31.6680    2.6753 H         1 UNK         0.0771 
    129 H129       37.7494   32.4785    3.7952 H         1 UNK         0.0771 
    130 H130       33.7150   30.9043    4.2347 H         1 UNK         0.2980 
    131 H131       33.8695   27.9452    3.9802 H         1 UNK         0.0545 
    132 H132       33.0295   30.0107    6.3635 H         1 UNK         0.3459 
    133 H133       31.6056   29.1713    6.9235 H         1 UNK         0.3459 
    134 H134       31.6909   28.5886    2.4528 H         1 UNK         0.0616 
    135 H135       32.5151   30.0882    2.3041 H         1 UNK         0.0616 
    136 H136       31.6781   27.8305    0.1885 H         1 UNK         0.0634 
    137 H137       33.0332   27.2921   -0.7518 H         1 UNK         0.0634 
@<TRIPOS>BOND
     1    1    2 1    
     2    1   72 1    
     3    1   73 1    
     4    1   74 1    
     5    2    3 2    
     6    2    4 am   BACKBONE|DICT|INTERRES
     7    4    5 1    
     8    4   75 1    
     9    5    6 1    
    10    5   35 1    
    11    5   76 1    
    12    6    7 1    
    13    6   77 1    
    14    6   78 1    
    15    7    8 1    
    16    8    9 1    
    17    8   79 1    
    18    8   80 1    
    19    9   10 ar   
    20    9   14 ar   
    21   10   11 ar   
    22   10   81 1    
    23   11   12 ar   
    24   11   71 1    
    25   12   13 ar   
    26   12   82 1    
    27   13   14 ar   
    28   13   15 1    
    29   14   83 1    
    30   15   16 1    
    31   15   84 1    
    32   15   85 1    
    33   16   17 1    
    34   17   18 1    
    35   17   86 1    
    36   17   87 1    
    37   18   19 1    
    38   18   37 1    
    39   18   88 1    
    40   19   20 am   BACKBONE|DICT|INTERRES
    41   19   89 1    
    42   20   21 2    
    43   20   22 1    
    44   22   23 1    
    45   22   24 1    
    46   22   90 1    
    47   23   91 1    
    48   23   92 1    
    49   23   93 1    
    50   24   25 am   BACKBONE|DICT|INTERRES
    51   24   94 1    
    52   25   26 2    
    53   25   27 1    
    54   27   28 1    
    55   27   29 1    
    56   27   95 1    
    57   28   96 1    
    58   28   97 1    
    59   28   98 1    
    60   29   30 am   BACKBONE|DICT|INTERRES
    61   29   99 1    
    62   30   31 2    
    63   30   32 1    
    64   32   33 1    
    65   32   34 1    
    66   32  100 1    
    67   33  101 1    
    68   33  102 1    
    69   33  103 1    
    70   34   35 am   BACKBONE|DICT|INTERRES
    71   34  104 1    
    72   35   36 2    
    73   37   38 2    
    74   37   39 am   BACKBONE|DICT|INTERRES
    75   39   40 1    
    76   39  105 1    
    77   40   41 1    
    78   40   42 1    
    79   40  106 1    
    80   41  107 1    
    81   41  108 1    
    82   41  109 1    
    83   42   43 2    
    84   42   44 am   BACKBONE|DICT|INTERRES
    85   44   45 1    
    86   44  110 1    
    87   45   46 1    
    88   45   47 1    
    89   45  111 1    
    90   46  112 1    
    91   46  113 1    
    92   46  114 1    
    93   47   48 2    
    94   47   49 am   BACKBONE|DICT|INTERRES
    95   49   50 1    
    96   49  115 1    
    97   50   51 1    
    98   50   52 1    
    99   50  116 1    
   100   51  117 1    
   101   51  118 1    
   102   51  119 1    
   103   52   53 2    
   104   52   54 am   BACKBONE|DICT|INTERRES
   105   54   55 1    
   106   54  120 1    
   107   55   56 1    
   108   55   57 1    
   109   55  121 1    
   110   56  122 1    
   111   56  123 1    
   112   56  124 1    
   113   57   58 2    
   114   57   59 am   BACKBONE|DICT|INTERRES
   115   59   60 1    
   116   59  125 1    
   117   60   61 1    
   118   60   62 1    
   119   60  126 1    
   120   61  127 1    
   121   61  128 1    
   122   61  129 1    
   123   62   63 2    
   124   62   64 am   BACKBONE|DICT|INTERRES
   125   64   65 1    
   126   64  130 1    
   127   65   66 1    
   128   65   69 1    
   129   65  131 1    
   130   66   67 am   BACKBONE|DICT|INTERRES
   131   66   68 2    
   132   67  132 1    
   133   67  133 1    
   134   69   70 1    
   135   69  134 1    
   136   69  135 1    
   137   70   71 1    
   138   71  136 1    
   139   71  137 1    
@<TRIPOS>SUBSTRUCTURE
     1 UNK         1 GROUP             0       ****    0 ROOT    
