@<TRIPOS>MOLECULE
3R136
137   139    1
SMALL
USER_CHARGES


@<TRIPOS>ATOM
      1 CA         30.7260   19.7626   -2.6690 C.3       0 UNK        -0.1979 
      2 C          29.8754   20.5239   -1.6634 C.2       0 UNK         0.4864 
      3 O          28.6487   20.4068   -1.6920 O.2       0 UNK        -0.5359 
      4 N          30.5179   21.3100   -0.7870 N.am      1 UNK        -0.4318 
      5 CA         29.9418   22.1314    0.2918 C.3       1 UNK         0.0824 
      6 C6         29.1312   21.3250    1.3440 C.3       12 UNK        -0.0944 
      7 S7         30.1897   20.1055    2.2007 S.3       12 UNK        -0.2672 
      8 C8         30.2994   20.7731    3.8963 C.3       12 UNK         0.0333 
      9 C9         30.6803   22.2481    3.9322 C.ar      12 UNK        -0.0807 
     10 C10        31.9106   22.6777    3.4243 C.ar      12 UNK        -0.0894 
     11 C11        32.2342   24.0370    3.4139 C.ar      12 UNK        -0.0804 
     12 C12        31.3275   24.9646    3.9329 C.ar      12 UNK        -0.0824 
     13 C13        30.1074   24.5468    4.4770 C.ar      12 UNK        -0.0762 
     14 C14        29.7895   23.1858    4.4654 C.ar      12 UNK        -0.0782 
     15 C15        29.1046   25.5516    5.0365 C.3       12 UNK         0.0230 
     16 S16        29.8923   26.9028    5.9798 S.3       12 UNK        -0.2608 
     17 C17        28.6529   28.2301    5.8153 C.3       12 UNK        -0.0989 
     18 CA         28.9779   29.2110    4.6588 C.3       5 UNK         0.0716 
     19 N          29.1147   28.5077    3.3790 N.am      5 UNK        -0.4135 
     20 C          29.3782   29.0499    2.1845 C.2       4 UNK         0.5031 
     21 O          29.5594   30.2493    1.9929 O.2       4 UNK        -0.5229 
     22 CA         29.3495   28.0938    0.9821 C.3       4 UNK         0.0329 
     23 CB         30.7299   27.4493    0.7814 C.3       4 UNK        -0.2001 
     24 N          28.3172   27.0475    1.0502 N.am      4 UNK        -0.4303 
     25 C          27.0079   27.2396    1.2967 C.2       3 UNK         0.5044 
     26 O          26.5279   28.3339    1.6024 O.2       3 UNK        -0.5152 
     27 CA         26.0829   26.0052    1.2142 C.3       3 UNK         0.0319 
     28 CB         24.6028   26.3873    0.9991 C.3       3 UNK        -0.2001 
     29 N          26.5198   25.0159    0.2208 N.am      3 UNK        -0.4354 
     30 C          26.7044   25.2140   -1.0944 C.2       2 UNK         0.4964 
     31 O          26.3855   26.2507   -1.6788 O.2       2 UNK        -0.5047 
     32 CA         27.3810   24.0758   -1.8918 C.3       2 UNK         0.0288 
     33 CB         28.2642   24.6271   -3.0314 C.3       2 UNK        -0.2113 
     34 N          28.1606   23.1095   -1.0996 N.am      2 UNK        -0.4145 
     35 C          29.1596   23.3509   -0.2365 C.2       1 UNK         0.5006 
     36 O          29.4819   24.4787    0.1399 O.2       1 UNK        -0.5103 
     37 C          27.9350   30.3506    4.6301 C.2       5 UNK         0.5055 
     38 O          28.1224   31.3465    5.3305 O.2       5 UNK        -0.5220 
     39 N          26.8662   30.1849    3.8377 N.am      6 UNK        -0.4450 
     40 CA         25.8152   31.1816    3.6379 C.3       6 UNK         0.0367 
     41 CB         24.4450   30.4852    3.6896 C.3       6 UNK        -0.1929 
     42 C          25.9869   31.9176    2.3008 C.2       6 UNK         0.5070 
     43 O          25.7377   33.1218    2.2425 O.2       6 UNK        -0.5237 
     44 N          26.3822   31.1880    1.2477 N.am      7 UNK        -0.4739 
     45 CA         26.4963   31.7009   -0.1201 C.3       7 UNK         0.0276 
     46 CB         26.5646   30.5166   -1.0979 C.3       7 UNK        -0.1927 
     47 C          27.6827   32.6557   -0.3434 C.2       7 UNK         0.5013 
     48 O          27.5837   33.5338   -1.2022 O.2       7 UNK        -0.5193 
     49 N          28.7760   32.4706    0.4049 N.am      8 UNK        -0.4253 
     50 CA         30.0033   33.2545    0.3061 C.3       8 UNK         0.0242 
     51 CB         30.9503   32.6102   -0.7296 C.3       8 UNK        -0.2000 
     52 C          30.6065   33.3929    1.7100 C.2       8 UNK         0.4948 
     53 O          30.1670   34.2573    2.4699 O.2       8 UNK        -0.5275 
     54 N          31.5855   32.5435    2.0341 N.am      9 UNK        -0.4246 
     55 CA         32.2129   32.4141    3.3427 C.3       9 UNK         0.0261 
     56 CB         33.4462   33.3305    3.4243 C.3       9 UNK        -0.1959 
     57 C          32.5975   30.9430    3.5349 C.2       9 UNK         0.5033 
     58 O          32.8030   30.2310    2.5469 O.2       9 UNK        -0.5390 
     59 N          32.6903   30.5172    4.7998 N.am      10 UNK        -0.4215 
     60 CA         33.0484   29.1533    5.1915 C.3       10 UNK         0.0240 
     61 CB         32.7765   28.9797    6.6948 C.3       10 UNK        -0.1982 
     62 C          34.5161   28.8211    4.8724 C.2       10 UNK         0.4970 
     63 O          35.3762   29.7024    4.9411 O.2       10 UNK        -0.4916 
     64 N          34.7722   27.5432    4.5749 N.am      11 UNK        -0.4279 
     65 CA         36.1098   26.9813    4.3257 C.3       11 UNK         0.1003 
     66 C          36.9807   26.7674    5.6002 C.2       11 UNK         0.5709 
     67 N          36.4474   26.9127    6.8080 N.am      11 UNK        -0.7358 
     68 O          38.1703   26.4800    5.4888 O.2       11 UNK        -0.4999 
     69 C69        36.0355   25.7038    3.4432 C.3       12 UNK        -0.0954 
     70 S70        34.8766   24.4430    4.0829 S.3       12 UNK        -0.2268 
     71 C71        33.5553   24.5134    2.8345 C.3       12 UNK         0.0203 
     72 H72        30.4547   20.0511   -3.6842 H         1 UNK         0.0888 
     73 H73        31.7901   19.9559   -2.5339 H         1 UNK         0.0888 
     74 H74        30.5605   18.6908   -2.5631 H         1 UNK         0.0888 
     75 H75        31.5251   21.3637   -0.8503 H         1 UNK         0.3017 
     76 H76        30.8036   22.5541    0.8102 H         1 UNK         0.0873 
     77 H77        28.6768   21.9910    2.0788 H         1 UNK         0.0745 
     78 H78        28.3001   20.7930    0.8797 H         1 UNK         0.0745 
     79 H79        29.3439   20.6068    4.3963 H         1 UNK         0.0705 
     80 H80        31.0401   20.1991    4.4546 H         1 UNK         0.0705 
     81 H81        32.6055   21.9553    3.0178 H         1 UNK         0.1334 
     82 H82        31.5770   26.0159    3.9161 H         1 UNK         0.1417 
     83 H83        28.8389   22.8557    4.8625 H         1 UNK         0.1562 
     84 H84        28.3902   25.0540    5.6944 H         1 UNK         0.0748 
     85 H85        28.5260   25.9503    4.2041 H         1 UNK         0.0748 
     86 H86        28.6257   28.7670    6.7659 H         1 UNK         0.0940 
     87 H87        27.6611   27.7896    5.6929 H         1 UNK         0.0940 
     88 H88        29.9442   29.6741    4.8643 H         1 UNK         0.0703 
     89 H89        28.9853   27.5095    3.4133 H         1 UNK         0.3081 
     90 H90        29.1342   28.6975    0.0999 H         1 UNK         0.0719 
     91 H91        30.9647   26.7399    1.5748 H         1 UNK         0.0809 
     92 H92        30.7816   26.9152   -0.1675 H         1 UNK         0.0809 
     93 H93        31.5192   28.2031    0.7710 H         1 UNK         0.0809 
     94 H94        28.6232   26.1135    0.7876 H         1 UNK         0.2990 
     95 H95        26.1569   25.5131    2.1848 H         1 UNK         0.0690 
     96 H96        23.9670   25.5035    0.9506 H         1 UNK         0.0788 
     97 H97        24.4609   26.9548    0.0788 H         1 UNK         0.0788 
     98 H98        24.2345   27.0051    1.8193 H         1 UNK         0.0788 
     99 H99        26.8155   24.1253    0.5941 H         1 UNK         0.2993 
    100 H100       26.5673   23.5087   -2.3463 H         1 UNK         0.0949 
    101 H101       29.0721   25.2503   -2.6458 H         1 UNK         0.0767 
    102 H102       28.7114   23.8201   -3.6121 H         1 UNK         0.0767 
    103 H103       27.6836   25.2365   -3.7252 H         1 UNK         0.0767 
    104 H104       28.0172   22.1292   -1.3380 H         1 UNK         0.3013 
    105 H105       26.8143   29.3596    3.2482 H         1 UNK         0.3121 
    106 H106       25.8429   31.9280    4.4348 H         1 UNK         0.0774 
    107 H107       24.3476   29.7227    2.9154 H         1 UNK         0.0815 
    108 H108       23.6368   31.2034    3.5446 H         1 UNK         0.0815 
    109 H109       24.2822   30.0048    4.6544 H         1 UNK         0.0815 
    110 H110       26.5263   30.1889    1.3709 H         1 UNK         0.2987 
    111 H111       25.5864   32.2640   -0.3399 H         1 UNK         0.0949 
    112 H112       27.4554   29.9108   -0.9369 H         1 UNK         0.0806 
    113 H113       25.6964   29.8648   -0.9961 H         1 UNK         0.0806 
    114 H114       26.5898   30.8644   -2.1315 H         1 UNK         0.0806 
    115 H115       28.7934   31.7184    1.0918 H         1 UNK         0.3010 
    116 H116       29.7682   34.2672   -0.0287 H         1 UNK         0.0829 
    117 H117       30.5267   32.6688   -1.7324 H         1 UNK         0.0813 
    118 H118       31.9122   33.1240   -0.7583 H         1 UNK         0.0813 
    119 H119       31.1376   31.5570   -0.5157 H         1 UNK         0.0813 
    120 H120       31.8227   31.7930    1.3962 H         1 UNK         0.3038 
    121 H121       31.4948   32.6883    4.1190 H         1 UNK         0.0769 
    122 H122       34.1842   33.0784    2.6616 H         1 UNK         0.0811 
    123 H123       33.9366   33.2442    4.3947 H         1 UNK         0.0811 
    124 H124       33.1716   34.3771    3.2915 H         1 UNK         0.0811 
    125 H125       32.5588   31.1814    5.5488 H         1 UNK         0.3204 
    126 H126       32.4027   28.4678    4.6375 H         1 UNK         0.0748 
    127 H127       32.9525   27.9499    7.0084 H         1 UNK         0.0771 
    128 H128       33.4195   29.6209    7.2995 H         1 UNK         0.0771 
    129 H129       31.7411   29.2154    6.9421 H         1 UNK         0.0771 
    130 H130       34.0210   26.8699    4.5820 H         1 UNK         0.2980 
    131 H131       36.6580   27.7231    3.7416 H         1 UNK         0.0545 
    132 H132       37.0268   26.7771    7.6213 H         1 UNK         0.3459 
    133 H133       35.4746   27.1471    6.9140 H         1 UNK         0.3459 
    134 H134       37.0198   25.2445    3.3345 H         1 UNK         0.0616 
    135 H135       35.7412   25.9829    2.4306 H         1 UNK         0.0616 
    136 H136       33.8366   23.9021    1.9756 H         1 UNK         0.0634 
    137 H137       33.4445   25.5337    2.4634 H         1 UNK         0.0634 
@<TRIPOS>BOND
     1    1    2 1    
     2    1   72 1    
     3    1   73 1    
     4    1   74 1    
     5    2    3 2    
     6    2    4 am   BACKBONE|DICT|INTERRES
     7    4    5 1    
     8    4   75 1    
     9    5    6 1    
    10    5   35 1    
    11    5   76 1    
    12    6    7 1    
    13    6   77 1    
    14    6   78 1    
    15    7    8 1    
    16    8    9 1    
    17    8   79 1    
    18    8   80 1    
    19    9   10 ar   
    20    9   14 ar   
    21   10   11 ar   
    22   10   81 1    
    23   11   12 ar   
    24   11   71 1    
    25   12   13 ar   
    26   12   82 1    
    27   13   14 ar   
    28   13   15 1    
    29   14   83 1    
    30   15   16 1    
    31   15   84 1    
    32   15   85 1    
    33   16   17 1    
    34   17   18 1    
    35   17   86 1    
    36   17   87 1    
    37   18   19 1    
    38   18   37 1    
    39   18   88 1    
    40   19   20 am   BACKBONE|DICT|INTERRES
    41   19   89 1    
    42   20   21 2    
    43   20   22 1    
    44   22   23 1    
    45   22   24 1    
    46   22   90 1    
    47   23   91 1    
    48   23   92 1    
    49   23   93 1    
    50   24   25 am   BACKBONE|DICT|INTERRES
    51   24   94 1    
    52   25   26 2    
    53   25   27 1    
    54   27   28 1    
    55   27   29 1    
    56   27   95 1    
    57   28   96 1    
    58   28   97 1    
    59   28   98 1    
    60   29   30 am   BACKBONE|DICT|INTERRES
    61   29   99 1    
    62   30   31 2    
    63   30   32 1    
    64   32   33 1    
    65   32   34 1    
    66   32  100 1    
    67   33  101 1    
    68   33  102 1    
    69   33  103 1    
    70   34   35 am   BACKBONE|DICT|INTERRES
    71   34  104 1    
    72   35   36 2    
    73   37   38 2    
    74   37   39 am   BACKBONE|DICT|INTERRES
    75   39   40 1    
    76   39  105 1    
    77   40   41 1    
    78   40   42 1    
    79   40  106 1    
    80   41  107 1    
    81   41  108 1    
    82   41  109 1    
    83   42   43 2    
    84   42   44 am   BACKBONE|DICT|INTERRES
    85   44   45 1    
    86   44  110 1    
    87   45   46 1    
    88   45   47 1    
    89   45  111 1    
    90   46  112 1    
    91   46  113 1    
    92   46  114 1    
    93   47   48 2    
    94   47   49 am   BACKBONE|DICT|INTERRES
    95   49   50 1    
    96   49  115 1    
    97   50   51 1    
    98   50   52 1    
    99   50  116 1    
   100   51  117 1    
   101   51  118 1    
   102   51  119 1    
   103   52   53 2    
   104   52   54 am   BACKBONE|DICT|INTERRES
   105   54   55 1    
   106   54  120 1    
   107   55   56 1    
   108   55   57 1    
   109   55  121 1    
   110   56  122 1    
   111   56  123 1    
   112   56  124 1    
   113   57   58 2    
   114   57   59 am   BACKBONE|DICT|INTERRES
   115   59   60 1    
   116   59  125 1    
   117   60   61 1    
   118   60   62 1    
   119   60  126 1    
   120   61  127 1    
   121   61  128 1    
   122   61  129 1    
   123   62   63 2    
   124   62   64 am   BACKBONE|DICT|INTERRES
   125   64   65 1    
   126   64  130 1    
   127   65   66 1    
   128   65   69 1    
   129   65  131 1    
   130   66   67 am   BACKBONE|DICT|INTERRES
   131   66   68 2    
   132   67  132 1    
   133   67  133 1    
   134   69   70 1    
   135   69  134 1    
   136   69  135 1    
   137   70   71 1    
   138   71  136 1    
   139   71  137 1    
@<TRIPOS>SUBSTRUCTURE
     1 UNK         1 GROUP             0       ****    0 ROOT    
