@<TRIPOS>MOLECULE
3R136
137   139    1
SMALL
USER_CHARGES


@<TRIPOS>ATOM
      1 CA         33.8837   24.3572   -0.1569 C.3       0 UNK        -0.1979 
      2 C          32.4668   24.6469    0.3132 C.2       0 UNK         0.4864 
      3 O          32.1865   25.7570    0.7654 O.2       0 UNK        -0.5359 
      4 N          31.5625   23.6661    0.1942 N.am      1 UNK        -0.4318 
      5 CA         30.1692   23.7098    0.6611 C.3       1 UNK         0.0824 
      6 C6         29.5860   22.2792    0.8720 C.3       12 UNK        -0.0944 
      7 S7         30.6829   21.1118    1.7542 S.3       12 UNK        -0.2672 
      8 C8         30.0764   21.2120    3.4667 C.3       12 UNK         0.0333 
      9 C9         30.5052   22.5156    4.1181 C.ar      12 UNK        -0.0807 
     10 C10        31.8279   22.6825    4.5411 C.ar      12 UNK        -0.0894 
     11 C11        32.2481   23.8979    5.0875 C.ar      12 UNK        -0.0804 
     12 C12        31.3299   24.9429    5.2240 C.ar      12 UNK        -0.0824 
     13 C13        30.0040   24.7837    4.8108 C.ar      12 UNK        -0.0762 
     14 C14        29.5933   23.5642    4.2662 C.ar      12 UNK        -0.0782 
     15 C15        29.0306   25.9449    4.9142 C.3       12 UNK         0.0230 
     16 S16        29.4909   27.2511    3.7401 S.3       12 UNK        -0.2608 
     17 C17        28.0107   28.3097    3.7696 C.3       12 UNK        -0.0989 
     18 CA         27.3286   28.3306    2.3782 C.3       5 UNK         0.0716 
     19 N          26.8453   27.0262    1.9169 N.am      5 UNK        -0.4135 
     20 C          25.8889   26.2642    2.4641 C.2       4 UNK         0.5031 
     21 O          25.3075   26.5341    3.5161 O.2       4 UNK        -0.5229 
     22 CA         25.5385   24.9704    1.6968 C.3       4 UNK         0.0329 
     23 CB         24.1723   24.3764    2.1009 C.3       4 UNK        -0.2001 
     24 N          25.6431   25.1254    0.2385 N.am      4 UNK        -0.4303 
     25 C          24.9277   25.9487   -0.5467 C.2       3 UNK         0.5044 
     26 O          23.9875   26.6382   -0.1508 O.2       3 UNK        -0.5152 
     27 CA         25.3976   26.0479   -2.0144 C.3       3 UNK         0.0319 
     28 CB         24.7360   27.1986   -2.7979 C.3       3 UNK        -0.2001 
     29 N          26.8606   26.1207   -2.1296 N.am      3 UNK        -0.4354 
     30 C          27.6802   26.9958   -1.5267 C.2       2 UNK         0.4964 
     31 O          27.2919   27.9597   -0.8613 O.2       2 UNK        -0.5047 
     32 CA         29.1883   26.7000   -1.6363 C.3       2 UNK         0.0288 
     33 CB         30.0163   27.9965   -1.5833 C.3       2 UNK        -0.2113 
     34 N          29.7090   25.7800   -0.6123 N.am      2 UNK        -0.4145 
     35 C          29.2662   24.5584   -0.2727 C.2       1 UNK         0.5006 
     36 O          28.2123   24.0753   -0.6914 O.2       1 UNK        -0.5103 
     37 C          26.2417   29.4117    2.2342 C.2       5 UNK         0.5055 
     38 O          25.9355   30.1250    3.1925 O.2       5 UNK        -0.5220 
     39 N          25.6979   29.5280    1.0136 N.am      6 UNK        -0.4450 
     40 CA         24.9297   30.6989    0.5816 C.3       6 UNK         0.0367 
     41 CB         24.0704   30.3469   -0.6416 C.3       6 UNK        -0.1929 
     42 C          25.8788   31.8665    0.2590 C.2       6 UNK         0.5070 
     43 O          25.5528   33.0178    0.5490 O.2       6 UNK        -0.5237 
     44 N          27.0507   31.5370   -0.3029 N.am      7 UNK        -0.4739 
     45 CA         28.1998   32.4322   -0.4237 C.3       7 UNK         0.0276 
     46 CB         29.0923   31.9350   -1.5726 C.3       7 UNK        -0.1927 
     47 C          28.9898   32.4531    0.8956 C.2       7 UNK         0.5013 
     48 O          28.8782   31.5190    1.6952 O.2       7 UNK        -0.5193 
     49 N          29.8146   33.4910    1.0839 N.am      8 UNK        -0.4253 
     50 CA         30.6590   33.7080    2.2661 C.3       8 UNK         0.0242 
     51 CB         31.0381   35.1999    2.3370 C.3       8 UNK        -0.2000 
     52 C          31.8929   32.7784    2.3209 C.2       8 UNK         0.4948 
     53 O          33.0211   33.2540    2.4670 O.2       8 UNK        -0.5275 
     54 N          31.6572   31.4687    2.1974 N.am      9 UNK        -0.4246 
     55 CA         32.6452   30.4056    2.3662 C.3       9 UNK         0.0261 
     56 CB         32.1770   29.1715    1.5767 C.3       9 UNK        -0.1959 
     57 C          32.8361   30.0698    3.8555 C.2       9 UNK         0.5033 
     58 O          31.9591   30.3582    4.6749 O.2       9 UNK        -0.5390 
     59 N          33.9744   29.4480    4.1753 N.am      10 UNK        -0.4215 
     60 CA         34.3429   28.9857    5.5104 C.3       10 UNK         0.0240 
     61 CB         34.9814   30.1371    6.3096 C.3       10 UNK        -0.1982 
     62 C          35.3100   27.8062    5.3674 C.2       10 UNK         0.4970 
     63 O          35.9413   27.6598    4.3170 O.2       10 UNK        -0.4916 
     64 N          35.4094   26.9934    6.4244 N.am      11 UNK        -0.4279 
     65 CA         36.2518   25.7855    6.4715 C.3       11 UNK         0.1003 
     66 C          37.7586   26.0560    6.7555 C.2       11 UNK         0.5709 
     67 N          38.1720   27.2804    7.0610 N.am      11 UNK        -0.7358 
     68 O          38.5709   25.1365    6.6871 O.2       11 UNK        -0.4999 
     69 C69        35.6780   24.7161    7.4446 C.3       12 UNK        -0.0954 
     70 S70        33.8923   24.3588    7.2690 S.3       12 UNK        -0.2268 
     71 C71        33.7026   24.1098    5.4752 C.3       12 UNK         0.0203 
     72 H72        34.1622   25.0453   -0.9545 H         1 UNK         0.0888 
     73 H73        34.5842   24.4885    0.6674 H         1 UNK         0.0888 
     74 H74        33.9886   23.3395   -0.5326 H         1 UNK         0.0888 
     75 H75        31.8489   22.7796   -0.1963 H         1 UNK         0.3017 
     76 H76        30.1662   24.2154    1.6283 H         1 UNK         0.0873 
     77 H77        29.3704   21.8160   -0.0930 H         1 UNK         0.0745 
     78 H78        28.6287   22.3342    1.3936 H         1 UNK         0.0745 
     79 H79        30.4824   20.3736    4.0346 H         1 UNK         0.0705 
     80 H80        28.9915   21.0969    3.4851 H         1 UNK         0.0705 
     81 H81        32.5352   21.8742    4.4134 H         1 UNK         0.1334 
     82 H82        31.6542   25.8922    5.6288 H         1 UNK         0.1417 
     83 H83        28.5725   23.4399    3.9313 H         1 UNK         0.1562 
     84 H84        29.0363   26.3461    5.9286 H         1 UNK         0.0748 
     85 H85        28.0109   25.6135    4.7115 H         1 UNK         0.0748 
     86 H86        28.3391   29.3137    4.0465 H         1 UNK         0.0940 
     87 H87        27.3164   27.9906    4.5484 H         1 UNK         0.0940 
     88 H88        28.0999   28.6231    1.6628 H         1 UNK         0.0703 
     89 H89        27.2124   26.7429    1.0200 H         1 UNK         0.3081 
     90 H90        26.3038   24.2441    1.9751 H         1 UNK         0.0719 
     91 H91        23.3559   25.0768    1.9223 H         1 UNK         0.0809 
     92 H92        23.9577   23.4619    1.5482 H         1 UNK         0.0809 
     93 H93        24.1548   24.1242    3.1619 H         1 UNK         0.0809 
     94 H94        26.4159   24.6253   -0.1959 H         1 UNK         0.2990 
     95 H95        25.0943   25.1125   -2.4872 H         1 UNK         0.0690 
     96 H96        25.0049   27.1612   -3.8535 H         1 UNK         0.0788 
     97 H97        25.0407   28.1693   -2.4137 H         1 UNK         0.0788 
     98 H98        23.6481   27.1461   -2.7393 H         1 UNK         0.0788 
     99 H99        27.2912   25.3298   -2.5907 H         1 UNK         0.2993 
    100 H100       29.3637   26.2357   -2.6086 H         1 UNK         0.0949 
    101 H101       31.0740   27.8014   -1.7618 H         1 UNK         0.0767 
    102 H102       29.6845   28.7020   -2.3462 H         1 UNK         0.0767 
    103 H103       29.9274   28.4919   -0.6152 H         1 UNK         0.0767 
    104 H104       30.5848   26.0580   -0.1737 H         1 UNK         0.3013 
    105 H105       26.0184   28.8922    0.2880 H         1 UNK         0.3121 
    106 H106       24.2639   31.0052    1.3915 H         1 UNK         0.0774 
    107 H107       23.3725   31.1545   -0.8655 H         1 UNK         0.0815 
    108 H108       24.6804   30.1962   -1.5316 H         1 UNK         0.0815 
    109 H109       23.4821   29.4443   -0.4736 H         1 UNK         0.0815 
    110 H110       27.2360   30.5574   -0.4673 H         1 UNK         0.2987 
    111 H111       27.8522   33.4432   -0.6485 H         1 UNK         0.0949 
    112 H112       29.5091   30.9503   -1.3604 H         1 UNK         0.0806 
    113 H113       28.5368   31.8699   -2.5084 H         1 UNK         0.0806 
    114 H114       29.9304   32.6122   -1.7416 H         1 UNK         0.0806 
    115 H115       29.8832   34.1890    0.3570 H         1 UNK         0.3010 
    116 H116       30.0630   33.4804    3.1529 H         1 UNK         0.0829 
    117 H117       30.1522   35.8346    2.3663 H         1 UNK         0.0813 
    118 H118       31.6153   35.4151    3.2374 H         1 UNK         0.0813 
    119 H119       31.6425   35.5038    1.4815 H         1 UNK         0.0813 
    120 H120       30.6844   31.1828    2.1185 H         1 UNK         0.3038 
    121 H121       33.6025   30.7390    1.9596 H         1 UNK         0.0769 
    122 H122       32.8700   28.3372    1.6933 H         1 UNK         0.0811 
    123 H123       32.1094   29.3867    0.5104 H         1 UNK         0.0811 
    124 H124       31.1973   28.8276    1.9085 H         1 UNK         0.0811 
    125 H125       34.6304   29.1788    3.4512 H         1 UNK         0.3204 
    126 H126       33.4480   28.6312    6.0272 H         1 UNK         0.0748 
    127 H127       35.2595   29.8150    7.3137 H         1 UNK         0.0771 
    128 H128       35.8826   30.5129    5.8232 H         1 UNK         0.0771 
    129 H129       34.2900   30.9728    6.4211 H         1 UNK         0.0771 
    130 H130       34.8697   27.1869    7.2553 H         1 UNK         0.2980 
    131 H131       36.2466   25.3430    5.4743 H         1 UNK         0.0545 
    132 H132       37.5171   28.0431    7.1155 H         1 UNK         0.3459 
    133 H133       39.1513   27.4406    7.2374 H         1 UNK         0.3459 
    134 H134       35.8423   25.0263    8.4781 H         1 UNK         0.0616 
    135 H135       36.2152   23.7734    7.3249 H         1 UNK         0.0616 
    136 H136       34.3199   23.2655    5.1642 H         1 UNK         0.0634 
    137 H137       34.0654   24.9814    4.9315 H         1 UNK         0.0634 
@<TRIPOS>BOND
     1    1    2 1    
     2    1   72 1    
     3    1   73 1    
     4    1   74 1    
     5    2    3 2    
     6    2    4 am   BACKBONE|DICT|INTERRES
     7    4    5 1    
     8    4   75 1    
     9    5    6 1    
    10    5   35 1    
    11    5   76 1    
    12    6    7 1    
    13    6   77 1    
    14    6   78 1    
    15    7    8 1    
    16    8    9 1    
    17    8   79 1    
    18    8   80 1    
    19    9   10 ar   
    20    9   14 ar   
    21   10   11 ar   
    22   10   81 1    
    23   11   12 ar   
    24   11   71 1    
    25   12   13 ar   
    26   12   82 1    
    27   13   14 ar   
    28   13   15 1    
    29   14   83 1    
    30   15   16 1    
    31   15   84 1    
    32   15   85 1    
    33   16   17 1    
    34   17   18 1    
    35   17   86 1    
    36   17   87 1    
    37   18   19 1    
    38   18   37 1    
    39   18   88 1    
    40   19   20 am   BACKBONE|DICT|INTERRES
    41   19   89 1    
    42   20   21 2    
    43   20   22 1    
    44   22   23 1    
    45   22   24 1    
    46   22   90 1    
    47   23   91 1    
    48   23   92 1    
    49   23   93 1    
    50   24   25 am   BACKBONE|DICT|INTERRES
    51   24   94 1    
    52   25   26 2    
    53   25   27 1    
    54   27   28 1    
    55   27   29 1    
    56   27   95 1    
    57   28   96 1    
    58   28   97 1    
    59   28   98 1    
    60   29   30 am   BACKBONE|DICT|INTERRES
    61   29   99 1    
    62   30   31 2    
    63   30   32 1    
    64   32   33 1    
    65   32   34 1    
    66   32  100 1    
    67   33  101 1    
    68   33  102 1    
    69   33  103 1    
    70   34   35 am   BACKBONE|DICT|INTERRES
    71   34  104 1    
    72   35   36 2    
    73   37   38 2    
    74   37   39 am   BACKBONE|DICT|INTERRES
    75   39   40 1    
    76   39  105 1    
    77   40   41 1    
    78   40   42 1    
    79   40  106 1    
    80   41  107 1    
    81   41  108 1    
    82   41  109 1    
    83   42   43 2    
    84   42   44 am   BACKBONE|DICT|INTERRES
    85   44   45 1    
    86   44  110 1    
    87   45   46 1    
    88   45   47 1    
    89   45  111 1    
    90   46  112 1    
    91   46  113 1    
    92   46  114 1    
    93   47   48 2    
    94   47   49 am   BACKBONE|DICT|INTERRES
    95   49   50 1    
    96   49  115 1    
    97   50   51 1    
    98   50   52 1    
    99   50  116 1    
   100   51  117 1    
   101   51  118 1    
   102   51  119 1    
   103   52   53 2    
   104   52   54 am   BACKBONE|DICT|INTERRES
   105   54   55 1    
   106   54  120 1    
   107   55   56 1    
   108   55   57 1    
   109   55  121 1    
   110   56  122 1    
   111   56  123 1    
   112   56  124 1    
   113   57   58 2    
   114   57   59 am   BACKBONE|DICT|INTERRES
   115   59   60 1    
   116   59  125 1    
   117   60   61 1    
   118   60   62 1    
   119   60  126 1    
   120   61  127 1    
   121   61  128 1    
   122   61  129 1    
   123   62   63 2    
   124   62   64 am   BACKBONE|DICT|INTERRES
   125   64   65 1    
   126   64  130 1    
   127   65   66 1    
   128   65   69 1    
   129   65  131 1    
   130   66   67 am   BACKBONE|DICT|INTERRES
   131   66   68 2    
   132   67  132 1    
   133   67  133 1    
   134   69   70 1    
   135   69  134 1    
   136   69  135 1    
   137   70   71 1    
   138   71  136 1    
   139   71  137 1    
@<TRIPOS>SUBSTRUCTURE
     1 UNK         1 GROUP             0       ****    0 ROOT    
