@<TRIPOS>MOLECULE
3R136
137   139    1
SMALL
USER_CHARGES


@<TRIPOS>ATOM
      1 CA         34.7058   21.9693    0.0944 C.3       0 UNK        -0.1979 
      2 C          33.1866   21.9553    0.1755 C.2       0 UNK         0.4864 
      3 O          32.5546   21.0788   -0.4155 O.2       0 UNK        -0.5359 
      4 N          32.6104   22.9340    0.8878 N.am      1 UNK        -0.4318 
      5 CA         31.1712   23.2032    1.0339 C.3       1 UNK         0.0824 
      6 C6         30.3550   22.0320    1.6543 C.3       12 UNK        -0.0944 
      7 S7         31.0776   21.3430    3.1833 S.3       12 UNK        -0.2672 
      8 C8         29.8361   21.7837    4.4381 C.3       12 UNK         0.0333 
      9 C9         30.0827   23.1718    5.0061 C.ar      12 UNK        -0.0807 
     10 C10        31.1538   23.3753    5.8806 C.ar      12 UNK        -0.0894 
     11 C11        31.3923   24.6354    6.4338 C.ar      12 UNK        -0.0804 
     12 C12        30.5330   25.6927    6.1243 C.ar      12 UNK        -0.0824 
     13 C13        29.4491   25.4995    5.2609 C.ar      12 UNK        -0.0762 
     14 C14        29.2352   24.2395    4.6919 C.ar      12 UNK        -0.0782 
     15 C15        28.5150   26.6578    4.9500 C.3       12 UNK         0.0230 
     16 S16        26.9896   26.5804    5.9465 S.3       12 UNK        -0.2608 
     17 C17        26.3419   28.2978    5.9475 C.3       12 UNK        -0.0989 
     18 CA         26.6415   29.1380    4.6813 C.3       5 UNK         0.0716 
     19 N          26.0974   28.5206    3.4691 N.am      5 UNK        -0.4135 
     20 C          26.4032   28.9151    2.2282 C.2       4 UNK         0.5031 
     21 O          27.1895   29.8320    1.9786 O.2       4 UNK        -0.5229 
     22 CA         25.7069   28.1723    1.0770 C.3       4 UNK         0.0329 
     23 CB         24.3741   28.8469    0.7147 C.3       4 UNK        -0.2001 
     24 N          26.5720   28.1443   -0.1022 N.am      4 UNK        -0.4303 
     25 C          27.6534   27.3639   -0.2086 C.2       3 UNK         0.5044 
     26 O          27.9295   26.4675    0.5932 O.2       3 UNK        -0.5152 
     27 CA         28.5650   27.6367   -1.4130 C.3       3 UNK         0.0319 
     28 CB         29.2299   29.0229   -1.3248 C.3       3 UNK        -0.2001 
     29 N          29.6040   26.6134   -1.4721 N.am      3 UNK        -0.4354 
     30 C          30.0095   25.9880   -2.5825 C.2       2 UNK         0.4964 
     31 O          29.5892   26.2620   -3.7079 O.2       2 UNK        -0.5047 
     32 CA         31.0583   24.8692   -2.4411 C.3       2 UNK         0.0288 
     33 CB         32.3696   25.2429   -3.1537 C.3       2 UNK        -0.2113 
     34 N          31.3559   24.4811   -1.0586 N.am      2 UNK        -0.4145 
     35 C          30.5749   23.6877   -0.3087 C.2       1 UNK         0.5006 
     36 O          29.4588   23.3059   -0.6681 O.2       1 UNK        -0.5103 
     37 C          26.1651   30.5981    4.8259 C.2       5 UNK         0.5055 
     38 O          25.0595   30.9310    4.3924 O.2       5 UNK        -0.5220 
     39 N          27.0454   31.4479    5.3752 N.am      6 UNK        -0.4450 
     40 CA         26.9963   32.9183    5.4246 C.3       6 UNK         0.0367 
     41 CB         25.7071   33.4507    6.0811 C.3       6 UNK        -0.1929 
     42 C          27.2533   33.5824    4.0578 C.2       6 UNK         0.5070 
     43 O          28.0018   34.5583    3.9953 O.2       6 UNK        -0.5237 
     44 N          26.6918   33.0258    2.9776 N.am      7 UNK        -0.4739 
     45 CA         26.9063   33.4335    1.5863 C.3       7 UNK         0.0276 
     46 CB         25.7006   32.9735    0.7476 C.3       7 UNK        -0.1927 
     47 C          28.2463   32.8986    1.0395 C.2       7 UNK         0.5013 
     48 O          28.2619   32.1250    0.0826 O.2       7 UNK        -0.5193 
     49 N          29.3452   33.3119    1.6839 N.am      8 UNK        -0.4253 
     50 CA         30.7537   32.9651    1.4434 C.3       8 UNK         0.0242 
     51 CB         31.1664   33.1486   -0.0318 C.3       8 UNK        -0.2000 
     52 C          31.1884   31.5892    1.9806 C.2       8 UNK         0.4948 
     53 O          32.3857   31.4181    2.2177 O.2       8 UNK        -0.5275 
     54 N          30.2510   30.6534    2.2031 N.am      9 UNK        -0.4246 
     55 CA         30.4245   29.3207    2.8052 C.3       9 UNK         0.0261 
     56 CB         30.9454   29.4188    4.2558 C.3       9 UNK        -0.1959 
     57 C          31.2706   28.3338    1.9832 C.2       9 UNK         0.5033 
     58 O          30.7780   27.2593    1.6406 O.2       9 UNK        -0.5390 
     59 N          32.5294   28.7021    1.7094 N.am      10 UNK        -0.4215 
     60 CA         33.5622   27.9084    1.0331 C.3       10 UNK         0.0240 
     61 CB         33.2557   27.8142   -0.4742 C.3       10 UNK        -0.1982 
     62 C          33.7715   26.5316    1.6976 C.2       10 UNK         0.4970 
     63 O          33.7299   25.5036    1.0186 O.2       10 UNK        -0.4916 
     64 N          33.9433   26.5523    3.0266 N.am      11 UNK        -0.4279 
     65 CA         34.1268   25.3886    3.9063 C.3       11 UNK         0.1003 
     66 C          35.3044   24.4725    3.4645 C.2       11 UNK         0.5709 
     67 N          35.0977   23.1625    3.4315 N.am      11 UNK        -0.7358 
     68 O          36.4049   24.9421    3.1805 O.2       11 UNK        -0.4999 
     69 C69        34.2846   25.8661    5.3755 C.3       12 UNK        -0.0954 
     70 S70        34.1694   24.5195    6.6032 S.3       12 UNK        -0.2268 
     71 C71        32.5590   24.8442    7.3893 C.3       12 UNK         0.0203 
     72 H72        35.0285   21.8742   -0.9420 H         1 UNK         0.0888 
     73 H73        35.1247   22.8938    0.4925 H         1 UNK         0.0888 
     74 H74        35.1190   21.1347    0.6601 H         1 UNK         0.0888 
     75 H75        33.2056   23.6725    1.2521 H         1 UNK         0.3017 
     76 H76        31.0938   24.0519    1.7165 H         1 UNK         0.0873 
     77 H77        29.3339   22.3602    1.8546 H         1 UNK         0.0745 
     78 H78        30.2649   21.2103    0.9417 H         1 UNK         0.0745 
     79 H79        29.8924   21.0563    5.2493 H         1 UNK         0.0705 
     80 H80        28.8297   21.6946    4.0265 H         1 UNK         0.0705 
     81 H81        31.8082   22.5501    6.1274 H         1 UNK         0.1334 
     82 H82        30.7017   26.6654    6.5655 H         1 UNK         0.1417 
     83 H83        28.3987   24.0893    4.0227 H         1 UNK         0.1562 
     84 H84        28.2734   26.6721    3.8856 H         1 UNK         0.0748 
     85 H85        29.0312   27.5879    5.1740 H         1 UNK         0.0748 
     86 H86        26.7556   28.7914    6.8292 H         1 UNK         0.0940 
     87 H87        25.2645   28.2480    6.1183 H         1 UNK         0.0940 
     88 H88        27.7202   29.1990    4.5463 H         1 UNK         0.0703 
     89 H89        25.4223   27.7830    3.6052 H         1 UNK         0.3081 
     90 H90        25.5039   27.1460    1.3912 H         1 UNK         0.0719 
     91 H91        24.5190   29.8636    0.3503 H         1 UNK         0.0809 
     92 H92        23.8458   28.2879   -0.0579 H         1 UNK         0.0809 
     93 H93        23.7141   28.9030    1.5816 H         1 UNK         0.0809 
     94 H94        26.4410   28.8865   -0.7737 H         1 UNK         0.2990 
     95 H95        27.9411   27.5938   -2.3083 H         1 UNK         0.0690 
     96 H96        29.9041   29.1939   -2.1640 H         1 UNK         0.0788 
     97 H97        29.8054   29.1370   -0.4069 H         1 UNK         0.0788 
     98 H98        28.4872   29.8208   -1.3417 H         1 UNK         0.0788 
     99 H99        29.9350   26.2977   -0.5675 H         1 UNK         0.2993 
    100 H100       30.6464   23.9951   -2.9509 H         1 UNK         0.0949 
    101 H101       33.1016   24.4374   -3.0888 H         1 UNK         0.0767 
    102 H102       32.1955   25.4334   -4.2136 H         1 UNK         0.0767 
    103 H103       32.8197   26.1420   -2.7362 H         1 UNK         0.0767 
    104 H104       32.2480   24.7718   -0.6790 H         1 UNK         0.3013 
    105 H105       27.9212   31.0597    5.6974 H         1 UNK         0.3121 
    106 H106       27.8267   33.2119    6.0691 H         1 UNK         0.0774 
    107 H107       25.7746   34.5272    6.2429 H         1 UNK         0.0815 
    108 H108       24.8261   33.2765    5.4631 H         1 UNK         0.0815 
    109 H109       25.5347   32.9870    7.0522 H         1 UNK         0.0815 
    110 H110       26.1092   32.2084    3.1239 H         1 UNK         0.2987 
    111 H111       26.9484   34.5240    1.5386 H         1 UNK         0.0949 
    112 H112       25.6049   31.8880    0.7540 H         1 UNK         0.0806 
    113 H113       24.7688   33.3961    1.1233 H         1 UNK         0.0806 
    114 H114       25.8040   33.2867   -0.2921 H         1 UNK         0.0806 
    115 H115       29.1821   33.9130    2.4871 H         1 UNK         0.3010 
    116 H116       31.3196   33.6964    2.0228 H         1 UNK         0.0829 
    117 H117       30.8821   34.1319   -0.4065 H         1 UNK         0.0813 
    118 H118       32.2477   33.0593   -0.1438 H         1 UNK         0.0813 
    119 H119       30.7168   32.3962   -0.6803 H         1 UNK         0.0813 
    120 H120       29.3033   30.8590    1.9036 H         1 UNK         0.3038 
    121 H121       29.4286   28.8822    2.8504 H         1 UNK         0.0769 
    122 H122       31.1163   28.4289    4.6796 H         1 UNK         0.0811 
    123 H123       30.2322   29.9337    4.8984 H         1 UNK         0.0811 
    124 H124       31.8938   29.9513    4.3233 H         1 UNK         0.0811 
    125 H125       32.7892   29.6469    1.9917 H         1 UNK         0.3204 
    126 H126       34.5014   28.4517    1.1467 H         1 UNK         0.0748 
    127 H127       34.0498   27.2839   -1.0011 H         1 UNK         0.0771 
    128 H128       32.3211   27.2864   -0.6602 H         1 UNK         0.0771 
    129 H129       33.1727   28.8038   -0.9235 H         1 UNK         0.0771 
    130 H130       33.9696   27.4511    3.4826 H         1 UNK         0.2980 
    131 H131       33.2015   24.8126    3.8367 H         1 UNK         0.0545 
    132 H132       35.8599   22.5559    3.1751 H         1 UNK         0.3459 
    133 H133       34.2137   22.7674    3.7116 H         1 UNK         0.3459 
    134 H134       35.2415   26.3731    5.5128 H         1 UNK         0.0616 
    135 H135       33.5202   26.6088    5.6097 H         1 UNK         0.0616 
    136 H136       32.4431   24.1700    8.2389 H         1 UNK         0.0634 
    137 H137       32.5587   25.8558    7.7985 H         1 UNK         0.0634 
@<TRIPOS>BOND
     1    1    2 1    
     2    1   72 1    
     3    1   73 1    
     4    1   74 1    
     5    2    3 2    
     6    2    4 am   BACKBONE|DICT|INTERRES
     7    4    5 1    
     8    4   75 1    
     9    5    6 1    
    10    5   35 1    
    11    5   76 1    
    12    6    7 1    
    13    6   77 1    
    14    6   78 1    
    15    7    8 1    
    16    8    9 1    
    17    8   79 1    
    18    8   80 1    
    19    9   10 ar   
    20    9   14 ar   
    21   10   11 ar   
    22   10   81 1    
    23   11   12 ar   
    24   11   71 1    
    25   12   13 ar   
    26   12   82 1    
    27   13   14 ar   
    28   13   15 1    
    29   14   83 1    
    30   15   16 1    
    31   15   84 1    
    32   15   85 1    
    33   16   17 1    
    34   17   18 1    
    35   17   86 1    
    36   17   87 1    
    37   18   19 1    
    38   18   37 1    
    39   18   88 1    
    40   19   20 am   BACKBONE|DICT|INTERRES
    41   19   89 1    
    42   20   21 2    
    43   20   22 1    
    44   22   23 1    
    45   22   24 1    
    46   22   90 1    
    47   23   91 1    
    48   23   92 1    
    49   23   93 1    
    50   24   25 am   BACKBONE|DICT|INTERRES
    51   24   94 1    
    52   25   26 2    
    53   25   27 1    
    54   27   28 1    
    55   27   29 1    
    56   27   95 1    
    57   28   96 1    
    58   28   97 1    
    59   28   98 1    
    60   29   30 am   BACKBONE|DICT|INTERRES
    61   29   99 1    
    62   30   31 2    
    63   30   32 1    
    64   32   33 1    
    65   32   34 1    
    66   32  100 1    
    67   33  101 1    
    68   33  102 1    
    69   33  103 1    
    70   34   35 am   BACKBONE|DICT|INTERRES
    71   34  104 1    
    72   35   36 2    
    73   37   38 2    
    74   37   39 am   BACKBONE|DICT|INTERRES
    75   39   40 1    
    76   39  105 1    
    77   40   41 1    
    78   40   42 1    
    79   40  106 1    
    80   41  107 1    
    81   41  108 1    
    82   41  109 1    
    83   42   43 2    
    84   42   44 am   BACKBONE|DICT|INTERRES
    85   44   45 1    
    86   44  110 1    
    87   45   46 1    
    88   45   47 1    
    89   45  111 1    
    90   46  112 1    
    91   46  113 1    
    92   46  114 1    
    93   47   48 2    
    94   47   49 am   BACKBONE|DICT|INTERRES
    95   49   50 1    
    96   49  115 1    
    97   50   51 1    
    98   50   52 1    
    99   50  116 1    
   100   51  117 1    
   101   51  118 1    
   102   51  119 1    
   103   52   53 2    
   104   52   54 am   BACKBONE|DICT|INTERRES
   105   54   55 1    
   106   54  120 1    
   107   55   56 1    
   108   55   57 1    
   109   55  121 1    
   110   56  122 1    
   111   56  123 1    
   112   56  124 1    
   113   57   58 2    
   114   57   59 am   BACKBONE|DICT|INTERRES
   115   59   60 1    
   116   59  125 1    
   117   60   61 1    
   118   60   62 1    
   119   60  126 1    
   120   61  127 1    
   121   61  128 1    
   122   61  129 1    
   123   62   63 2    
   124   62   64 am   BACKBONE|DICT|INTERRES
   125   64   65 1    
   126   64  130 1    
   127   65   66 1    
   128   65   69 1    
   129   65  131 1    
   130   66   67 am   BACKBONE|DICT|INTERRES
   131   66   68 2    
   132   67  132 1    
   133   67  133 1    
   134   69   70 1    
   135   69  134 1    
   136   69  135 1    
   137   70   71 1    
   138   71  136 1    
   139   71  137 1    
@<TRIPOS>SUBSTRUCTURE
     1 UNK         1 GROUP             0       ****    0 ROOT    
