@<TRIPOS>MOLECULE
3R136
137   139    1
SMALL
USER_CHARGES


@<TRIPOS>ATOM
      1 CA         29.5932   27.9383    2.3865 C.3       0 UNK        -0.1979 
      2 C          28.9835   26.7139    3.0528 C.2       0 UNK         0.4864 
      3 O          27.9343   26.8261    3.6875 O.2       0 UNK        -0.5359 
      4 N          29.6436   25.5537    2.9269 N.am      1 UNK        -0.4318 
      5 CA         29.2369   24.2810    3.5362 C.3       1 UNK         0.0824 
      6 C6         30.3258   23.1870    3.4110 C.3       12 UNK        -0.0944 
      7 S7         31.9124   23.6669    4.1679 S.3       12 UNK        -0.2672 
      8 C8         33.0502   23.6052    2.7487 C.3       12 UNK         0.0333 
      9 C9         32.9928   24.8676    1.8989 C.ar      12 UNK        -0.0807 
     10 C10        33.8253   25.9485    2.2082 C.ar      12 UNK        -0.0894 
     11 C11        33.8447   27.0869    1.3972 C.ar      12 UNK        -0.0804 
     12 C12        33.0101   27.1418    0.2774 C.ar      12 UNK        -0.0824 
     13 C13        32.1611   26.0757   -0.0387 C.ar      12 UNK        -0.0762 
     14 C14        32.1608   24.9371    0.7749 C.ar      12 UNK        -0.0782 
     15 C15        31.3074   26.1309   -1.3015 C.3       12 UNK         0.0230 
     16 S16        30.2428   27.6125   -1.3635 S.3       12 UNK        -0.2608 
     17 C17        28.5717   26.9414   -1.0633 C.3       12 UNK        -0.0989 
     18 CA         27.4750   27.7671   -1.7865 C.3       5 UNK         0.0716 
     19 N          26.2534   26.9811   -1.9581 N.am      5 UNK        -0.4135 
     20 C          25.3898   27.1230   -2.9738 C.2       4 UNK         0.5031 
     21 O          25.5587   27.9151   -3.9025 O.2       4 UNK        -0.5229 
     22 CA         24.1389   26.2213   -2.9940 C.3       4 UNK         0.0329 
     23 CB         24.2786   25.1390   -4.0780 C.3       4 UNK        -0.2001 
     24 N          23.8698   25.5688   -1.7119 N.am      4 UNK        -0.4303 
     25 C          23.2739   26.1532   -0.6635 C.2       3 UNK         0.5044 
     26 O          22.7934   27.2864   -0.6920 O.2       3 UNK        -0.5152 
     27 CA         23.2161   25.3399    0.6456 C.3       3 UNK         0.0319 
     28 CB         21.8467   24.6569    0.7930 C.3       3 UNK        -0.2001 
     29 N          24.2769   24.3308    0.7815 N.am      3 UNK        -0.4354 
     30 C          25.5885   24.6030    0.8169 C.2       2 UNK         0.4964 
     31 O          26.0555   25.7349    0.6859 O.2       2 UNK        -0.5047 
     32 CA         26.5418   23.4081    0.9287 C.3       2 UNK         0.0288 
     33 CB         26.9302   22.9072   -0.4729 C.3       2 UNK        -0.2113 
     34 N          27.7541   23.8056    1.6425 N.am      2 UNK        -0.4145 
     35 C          27.9040   23.7495    2.9724 C.2       1 UNK         0.5006 
     36 O          27.0569   23.2897    3.7409 O.2       1 UNK        -0.5103 
     37 C          27.1510   29.0805   -1.0442 C.2       5 UNK         0.5055 
     38 O          26.1905   29.1395   -0.2722 O.2       5 UNK        -0.5220 
     39 N          27.9780   30.1034   -1.2767 N.am      6 UNK        -0.4450 
     40 CA         27.9286   31.4001   -0.6125 C.3       6 UNK         0.0367 
     41 CB         27.2888   32.4401   -1.5506 C.3       6 UNK        -0.1929 
     42 C          29.3686   31.7575   -0.2358 C.2       6 UNK         0.5070 
     43 O          30.1187   32.2461   -1.0826 O.2       6 UNK        -0.5237 
     44 N          29.7430   31.4553    1.0094 N.am      7 UNK        -0.4739 
     45 CA         31.0685   31.6750    1.5826 C.3       7 UNK         0.0276 
     46 CB         32.0504   30.5987    1.0800 C.3       7 UNK        -0.1927 
     47 C          30.9454   31.6756    3.1138 C.2       7 UNK         0.5013 
     48 O          29.8407   31.5014    3.6388 O.2       7 UNK        -0.5193 
     49 N          32.0736   31.8703    3.8085 N.am      8 UNK        -0.4253 
     50 CA         32.1867   31.9786    5.2685 C.3       8 UNK         0.0242 
     51 CB         33.5341   32.6468    5.6040 C.3       8 UNK        -0.2000 
     52 C          31.9965   30.6387    6.0139 C.2       8 UNK         0.4948 
     53 O          32.8708   30.2348    6.7853 O.2       8 UNK        -0.5275 
     54 N          30.8522   29.9804    5.7815 N.am      9 UNK        -0.4246 
     55 CA         30.4297   28.6932    6.3438 C.3       9 UNK         0.0261 
     56 CB         30.0596   28.8531    7.8365 C.3       9 UNK        -0.1959 
     57 C          31.4698   27.5924    6.0618 C.2       9 UNK         0.5033 
     58 O          31.6567   27.2361    4.9008 O.2       9 UNK        -0.5390 
     59 N          32.1422   27.0973    7.1092 N.am      10 UNK        -0.4215 
     60 CA         33.2271   26.1173    7.0173 C.3       10 UNK         0.0240 
     61 CB         33.5191   25.5625    8.4216 C.3       10 UNK        -0.1982 
     62 C          34.5171   26.6634    6.3734 C.2       10 UNK         0.4970 
     63 O          35.3529   25.8593    5.9585 O.2       10 UNK        -0.4916 
     64 N          34.6701   27.9954    6.3219 N.am      11 UNK        -0.4279 
     65 CA         35.8199   28.7223    5.7566 C.3       11 UNK         0.1003 
     66 C          37.1593   28.5318    6.5331 C.2       11 UNK         0.5709 
     67 N          37.1418   28.0671    7.7772 N.am      11 UNK        -0.7358 
     68 O          38.2322   28.8419    6.0196 O.2       11 UNK        -0.4999 
     69 C69        35.9730   28.5146    4.2226 C.3       12 UNK        -0.0954 
     70 S70        34.4928   29.0312    3.2909 S.3       12 UNK        -0.2268 
     71 C71        34.8078   28.2321    1.6854 C.3       12 UNK         0.0203 
     72 H72        29.9618   28.6293    3.1433 H         1 UNK         0.0888 
     73 H73        28.8489   28.4577    1.7838 H         1 UNK         0.0888 
     74 H74        30.4290   27.6694    1.7422 H         1 UNK         0.0888 
     75 H75        30.5524   25.5532    2.4833 H         1 UNK         0.3017 
     76 H76        29.0788   24.4756    4.5993 H         1 UNK         0.0873 
     77 H77        29.9989   22.2728    3.9110 H         1 UNK         0.0745 
     78 H78        30.4821   22.9137    2.3665 H         1 UNK         0.0745 
     79 H79        34.0637   23.4733    3.1308 H         1 UNK         0.0705 
     80 H80        32.8457   22.7214    2.1426 H         1 UNK         0.0705 
     81 H81        34.4734   25.8975    3.0728 H         1 UNK         0.1334 
     82 H82        33.0312   28.0109   -0.3658 H         1 UNK         0.1417 
     83 H83        31.5371   24.0924    0.5164 H         1 UNK         0.1562 
     84 H84        30.7106   25.2248   -1.4109 H         1 UNK         0.0748 
     85 H85        31.9751   26.1546   -2.1638 H         1 UNK         0.0748 
     86 H86        28.3838   26.8735    0.0085 H         1 UNK         0.0940 
     87 H87        28.5483   25.9163   -1.4345 H         1 UNK         0.0940 
     88 H88        27.8474   28.0251   -2.7809 H         1 UNK         0.0703 
     89 H89        25.9957   26.4077   -1.1616 H         1 UNK         0.3081 
     90 H90        23.2862   26.8530   -3.2525 H         1 UNK         0.0719 
     91 H91        25.1194   24.4731   -3.8793 H         1 UNK         0.0809 
     92 H92        23.3768   24.5308   -4.1507 H         1 UNK         0.0809 
     93 H93        24.4435   25.5873   -5.0590 H         1 UNK         0.0809 
     94 H94        24.2127   24.6262   -1.5992 H         1 UNK         0.2990 
     95 H95        23.3337   26.0493    1.4677 H         1 UNK         0.0690 
     96 H96        21.7513   24.1610    1.7592 H         1 UNK         0.0788 
     97 H97        21.6805   23.9122    0.0135 H         1 UNK         0.0788 
     98 H98        21.0375   25.3856    0.7249 H         1 UNK         0.0788 
     99 H99        23.9749   23.3706    0.8706 H         1 UNK         0.2993 
    100 H100       26.0444   22.5987    1.4683 H         1 UNK         0.0949 
    101 H101       27.4063   23.6877   -1.0677 H         1 UNK         0.0767 
    102 H102       27.6201   22.0650   -0.4138 H         1 UNK         0.0767 
    103 H103       26.0534   22.5657   -1.0246 H         1 UNK         0.0767 
    104 H104       28.4712   24.2596    1.0980 H         1 UNK         0.3013 
    105 H105       28.7831   29.9539   -1.8718 H         1 UNK         0.3121 
    106 H106       27.3338   31.3464    0.3023 H         1 UNK         0.0774 
    107 H107       26.2541   32.1821   -1.7764 H         1 UNK         0.0815 
    108 H108       27.2850   33.4287   -1.0901 H         1 UNK         0.0815 
    109 H109       27.8260   32.5211   -2.4964 H         1 UNK         0.0815 
    110 H110       29.0635   31.1074    1.6757 H         1 UNK         0.2987 
    111 H111       31.4219   32.6619    1.2755 H         1 UNK         0.0949 
    112 H112       31.8278   29.6196    1.5033 H         1 UNK         0.0806 
    113 H113       32.0299   30.5032   -0.0056 H         1 UNK         0.0806 
    114 H114       33.0750   30.8491    1.3529 H         1 UNK         0.0806 
    115 H115       32.9398   31.9516    3.2960 H         1 UNK         0.3010 
    116 H116       31.3941   32.6434    5.6187 H         1 UNK         0.0829 
    117 H117       33.6212   33.6266    5.1341 H         1 UNK         0.0813 
    118 H118       33.6410   32.7969    6.6792 H         1 UNK         0.0813 
    119 H119       34.3773   32.0384    5.2741 H         1 UNK         0.0813 
    120 H120       30.2313   30.3915    5.0879 H         1 UNK         0.3038 
    121 H121       29.5249   28.4010    5.8084 H         1 UNK         0.0769 
    122 H122       30.8985   29.2021    8.4396 H         1 UNK         0.0811 
    123 H123       29.7086   27.9111    8.2603 H         1 UNK         0.0811 
    124 H124       29.2511   29.5741    7.9586 H         1 UNK         0.0811 
    125 H125       31.9391   27.4704    8.0250 H         1 UNK         0.3204 
    126 H126       32.8814   25.2933    6.3919 H         1 UNK         0.0748 
    127 H127       34.3028   24.8043    8.3867 H         1 UNK         0.0771 
    128 H128       33.8521   26.3447    9.1049 H         1 UNK         0.0771 
    129 H129       32.6360   25.0909    8.8533 H         1 UNK         0.0771 
    130 H130       33.9212   28.5932    6.6593 H         1 UNK         0.2980 
    131 H131       35.5816   29.7755    5.9071 H         1 UNK         0.0545 
    132 H132       36.2700   27.8230    8.2178 H         1 UNK         0.3459 
    133 H133       38.0105   27.9582    8.2762 H         1 UNK         0.3459 
    134 H134       36.1977   27.4711    3.9987 H         1 UNK         0.0616 
    135 H135       36.8104   29.0976    3.8358 H         1 UNK         0.0616 
    136 H136       35.8309   27.8571    1.6405 H         1 UNK         0.0634 
    137 H137       34.7373   28.9953    0.9094 H         1 UNK         0.0634 
@<TRIPOS>BOND
     1    1    2 1    
     2    1   72 1    
     3    1   73 1    
     4    1   74 1    
     5    2    3 2    
     6    2    4 am   BACKBONE|DICT|INTERRES
     7    4    5 1    
     8    4   75 1    
     9    5    6 1    
    10    5   35 1    
    11    5   76 1    
    12    6    7 1    
    13    6   77 1    
    14    6   78 1    
    15    7    8 1    
    16    8    9 1    
    17    8   79 1    
    18    8   80 1    
    19    9   10 ar   
    20    9   14 ar   
    21   10   11 ar   
    22   10   81 1    
    23   11   12 ar   
    24   11   71 1    
    25   12   13 ar   
    26   12   82 1    
    27   13   14 ar   
    28   13   15 1    
    29   14   83 1    
    30   15   16 1    
    31   15   84 1    
    32   15   85 1    
    33   16   17 1    
    34   17   18 1    
    35   17   86 1    
    36   17   87 1    
    37   18   19 1    
    38   18   37 1    
    39   18   88 1    
    40   19   20 am   BACKBONE|DICT|INTERRES
    41   19   89 1    
    42   20   21 2    
    43   20   22 1    
    44   22   23 1    
    45   22   24 1    
    46   22   90 1    
    47   23   91 1    
    48   23   92 1    
    49   23   93 1    
    50   24   25 am   BACKBONE|DICT|INTERRES
    51   24   94 1    
    52   25   26 2    
    53   25   27 1    
    54   27   28 1    
    55   27   29 1    
    56   27   95 1    
    57   28   96 1    
    58   28   97 1    
    59   28   98 1    
    60   29   30 am   BACKBONE|DICT|INTERRES
    61   29   99 1    
    62   30   31 2    
    63   30   32 1    
    64   32   33 1    
    65   32   34 1    
    66   32  100 1    
    67   33  101 1    
    68   33  102 1    
    69   33  103 1    
    70   34   35 am   BACKBONE|DICT|INTERRES
    71   34  104 1    
    72   35   36 2    
    73   37   38 2    
    74   37   39 am   BACKBONE|DICT|INTERRES
    75   39   40 1    
    76   39  105 1    
    77   40   41 1    
    78   40   42 1    
    79   40  106 1    
    80   41  107 1    
    81   41  108 1    
    82   41  109 1    
    83   42   43 2    
    84   42   44 am   BACKBONE|DICT|INTERRES
    85   44   45 1    
    86   44  110 1    
    87   45   46 1    
    88   45   47 1    
    89   45  111 1    
    90   46  112 1    
    91   46  113 1    
    92   46  114 1    
    93   47   48 2    
    94   47   49 am   BACKBONE|DICT|INTERRES
    95   49   50 1    
    96   49  115 1    
    97   50   51 1    
    98   50   52 1    
    99   50  116 1    
   100   51  117 1    
   101   51  118 1    
   102   51  119 1    
   103   52   53 2    
   104   52   54 am   BACKBONE|DICT|INTERRES
   105   54   55 1    
   106   54  120 1    
   107   55   56 1    
   108   55   57 1    
   109   55  121 1    
   110   56  122 1    
   111   56  123 1    
   112   56  124 1    
   113   57   58 2    
   114   57   59 am   BACKBONE|DICT|INTERRES
   115   59   60 1    
   116   59  125 1    
   117   60   61 1    
   118   60   62 1    
   119   60  126 1    
   120   61  127 1    
   121   61  128 1    
   122   61  129 1    
   123   62   63 2    
   124   62   64 am   BACKBONE|DICT|INTERRES
   125   64   65 1    
   126   64  130 1    
   127   65   66 1    
   128   65   69 1    
   129   65  131 1    
   130   66   67 am   BACKBONE|DICT|INTERRES
   131   66   68 2    
   132   67  132 1    
   133   67  133 1    
   134   69   70 1    
   135   69  134 1    
   136   69  135 1    
   137   70   71 1    
   138   71  136 1    
   139   71  137 1    
@<TRIPOS>SUBSTRUCTURE
     1 UNK         1 GROUP             0       ****    0 ROOT    
