@<TRIPOS>MOLECULE
3R136
137   139    1
SMALL
USER_CHARGES


@<TRIPOS>ATOM
      1 CA         32.0636   22.9258   -5.3409 C.3       0 UNK        -0.1979 
      2 C          31.4977   23.8582   -4.2799 C.2       0 UNK         0.4864 
      3 O          31.3375   25.0512   -4.5399 O.2       0 UNK        -0.5359 
      4 N          31.2003   23.3229   -3.0872 N.am      1 UNK        -0.4318 
      5 CA         30.6228   24.0556   -1.9541 C.3       1 UNK         0.0824 
      6 C6         30.7003   23.2117   -0.6549 C.3       12 UNK        -0.0944 
      7 S7         30.2397   24.1363    0.8481 S.3       12 UNK        -0.2672 
      8 C8         31.0111   23.1052    2.1323 C.3       12 UNK         0.0333 
      9 C9         30.7245   23.6478    3.5247 C.ar      12 UNK        -0.0807 
     10 C10        31.7604   24.1305    4.3313 C.ar      12 UNK        -0.0894 
     11 C11        31.4922   24.6129    5.6172 C.ar      12 UNK        -0.0804 
     12 C12        30.1754   24.6240    6.0882 C.ar      12 UNK        -0.0824 
     13 C13        29.1321   24.1544    5.2866 C.ar      12 UNK        -0.0762 
     14 C14        29.4155   23.6533    4.0132 C.ar      12 UNK        -0.0782 
     15 C15        27.7001   24.1681    5.7960 C.3       12 UNK         0.0230 
     16 S16        26.6314   25.2322    4.7781 S.3       12 UNK        -0.2608 
     17 C17        27.0935   26.9168    5.3188 C.3       12 UNK        -0.0989 
     18 CA         27.8764   27.7502    4.2636 C.3       5 UNK         0.0716 
     19 N          27.3054   27.6208    2.9192 N.am      5 UNK        -0.4135 
     20 C          27.7387   28.1981    1.7903 C.2       4 UNK         0.5031 
     21 O          28.7143   28.9526    1.7288 O.2       4 UNK        -0.5229 
     22 CA         26.9450   27.8647    0.5113 C.3       4 UNK         0.0329 
     23 CB         27.5590   28.5004   -0.7475 C.3       4 UNK        -0.2001 
     24 N          26.8271   26.4179    0.3027 N.am      4 UNK        -0.4303 
     25 C          25.9241   25.6279    0.9034 C.2       3 UNK         0.5044 
     26 O          25.0899   26.0599    1.7011 O.2       3 UNK        -0.5152 
     27 CA         25.9754   24.1142    0.6012 C.3       3 UNK         0.0319 
     28 CB         24.6163   23.4157    0.8180 C.3       3 UNK        -0.2001 
     29 N          26.5267   23.7897   -0.7196 N.am      3 UNK        -0.4354 
     30 C          26.0594   24.1678   -1.9211 C.2       2 UNK         0.4964 
     31 O          25.0025   24.7796   -2.0839 O.2       2 UNK        -0.5047 
     32 CA         26.9363   23.8170   -3.1463 C.3       2 UNK         0.0288 
     33 CB         26.7696   24.8339   -4.2960 C.3       2 UNK        -0.2113 
     34 N          28.3640   23.6349   -2.8323 N.am      2 UNK        -0.4145 
     35 C          29.1806   24.5252   -2.2419 C.2       1 UNK         0.5006 
     36 O          28.8286   25.6529   -1.8931 O.2       1 UNK        -0.5103 
     37 C          27.9033   29.2339    4.6810 C.2       5 UNK         0.5055 
     38 O          26.8377   29.8526    4.7341 O.2       5 UNK        -0.5220 
     39 N          29.0985   29.7952    4.9073 N.am      6 UNK        -0.4450 
     40 CA         29.4086   31.2025    5.2062 C.3       6 UNK         0.0367 
     41 CB         28.7088   31.6843    6.4921 C.3       6 UNK        -0.1929 
     42 C          29.1677   32.1798    4.0374 C.2       6 UNK         0.5070 
     43 O          29.8933   33.1685    3.9318 O.2       6 UNK        -0.5237 
     44 N          28.1767   31.8983    3.1811 N.am      7 UNK        -0.4739 
     45 CA         27.8172   32.6732    1.9912 C.3       7 UNK         0.0276 
     46 CB         26.5006   32.1308    1.4121 C.3       7 UNK        -0.1927 
     47 C          28.9173   32.6870    0.9166 C.2       7 UNK         0.5013 
     48 O          29.1179   33.7213    0.2780 O.2       7 UNK        -0.5193 
     49 N          29.6150   31.5565    0.7518 N.am      8 UNK        -0.4253 
     50 CA         30.7899   31.4266   -0.1121 C.3       8 UNK         0.0242 
     51 CB         30.3911   30.8952   -1.4987 C.3       8 UNK        -0.2000 
     52 C          31.8595   30.5420    0.5378 C.2       8 UNK         0.4948 
     53 O          33.0428   30.8740    0.4514 O.2       8 UNK        -0.5275 
     54 N          31.4452   29.4520    1.1988 N.am      9 UNK        -0.4246 
     55 CA         32.3204   28.5926    1.9900 C.3       9 UNK         0.0261 
     56 CB         31.7056   27.1866    2.0803 C.3       9 UNK        -0.1959 
     57 C          32.5112   29.2279    3.3721 C.2       9 UNK         0.5033 
     58 O          31.6866   29.0091    4.2591 O.2       9 UNK        -0.5390 
     59 N          33.5647   30.0434    3.5096 N.am      10 UNK        -0.4215 
     60 CA         33.8934   30.8028    4.7222 C.3       10 UNK         0.0240 
     61 CB         34.9696   31.8467    4.3808 C.3       10 UNK        -0.1982 
     62 C          34.3401   29.9393    5.9186 C.2       10 UNK         0.4970 
     63 O          34.2894   30.4235    7.0504 O.2       10 UNK        -0.4916 
     64 N          34.7589   28.6954    5.6494 N.am      11 UNK        -0.4279 
     65 CA         35.1914   27.6829    6.6274 C.3       11 UNK         0.1003 
     66 C          36.5403   28.0412    7.3238 C.2       11 UNK         0.5709 
     67 N          36.8899   27.3804    8.4202 N.am      11 UNK        -0.7358 
     68 O          37.3072   28.8797    6.8521 O.2       11 UNK        -0.4999 
     69 C69        34.0636   27.2628    7.6225 C.3       12 UNK        -0.0954 
     70 S70        32.4729   26.8973    6.8074 S.3       12 UNK        -0.2268 
     71 C71        32.6221   25.1134    6.5047 C.3       12 UNK         0.0203 
     72 H72        33.0497   23.2681   -5.6536 H         1 UNK         0.0888 
     73 H73        32.1599   21.9029   -4.9771 H         1 UNK         0.0888 
     74 H74        31.4134   22.9145   -6.2153 H         1 UNK         0.0888 
     75 H75        31.3733   22.3392   -2.9350 H         1 UNK         0.3017 
     76 H76        31.2283   24.9533   -1.8083 H         1 UNK         0.0873 
     77 H77        30.0714   22.3221   -0.7248 H         1 UNK         0.0745 
     78 H78        31.7213   22.8496   -0.5228 H         1 UNK         0.0745 
     79 H79        32.0859   23.0522    1.9517 H         1 UNK         0.0705 
     80 H80        30.6295   22.0859    2.0569 H         1 UNK         0.0705 
     81 H81        32.7763   24.1250    3.9607 H         1 UNK         0.1334 
     82 H82        29.9673   25.0041    7.0792 H         1 UNK         0.1417 
     83 H83        28.6109   23.2832    3.3921 H         1 UNK         0.1562 
     84 H84        27.6491   24.4855    6.8387 H         1 UNK         0.0748 
     85 H85        27.3082   23.1504    5.7675 H         1 UNK         0.0748 
     86 H86        27.6676   26.8592    6.2454 H         1 UNK         0.0940 
     87 H87        26.1573   27.4134    5.5835 H         1 UNK         0.0940 
     88 H88        28.8999   27.3721    4.2170 H         1 UNK         0.0703 
     89 H89        26.4867   27.0259    2.8512 H         1 UNK         0.3081 
     90 H90        25.9463   28.2884    0.6361 H         1 UNK         0.0719 
     91 H91        28.5706   28.1335   -0.9215 H         1 UNK         0.0809 
     92 H92        26.9668   28.2760   -1.6347 H         1 UNK         0.0809 
     93 H93        27.6107   29.5860   -0.6577 H         1 UNK         0.0809 
     94 H94        27.4978   26.0041   -0.3376 H         1 UNK         0.2990 
     95 H95        26.6754   23.6969    1.3268 H         1 UNK         0.0690 
     96 H96        24.6827   22.3464    0.6175 H         1 UNK         0.0788 
     97 H97        23.8404   23.8313    0.1744 H         1 UNK         0.0788 
     98 H98        24.2782   23.5294    1.8488 H         1 UNK         0.0788 
     99 H99        27.4059   23.2928   -0.7055 H         1 UNK         0.2993 
    100 H100       26.5744   22.8516   -3.5036 H         1 UNK         0.0949 
    101 H101       27.0492   25.8417   -3.9862 H         1 UNK         0.0767 
    102 H102       27.3844   24.5654   -5.1552 H         1 UNK         0.0767 
    103 H103       25.7354   24.8742   -4.6401 H         1 UNK         0.0767 
    104 H104       28.7515   22.7335   -3.0748 H         1 UNK         0.3013 
    105 H105       29.9363   29.2347    4.7435 H         1 UNK         0.3121 
    106 H106       30.4823   31.2212    5.3986 H         1 UNK         0.0774 
    107 H107       29.0545   32.6809    6.7692 H         1 UNK         0.0815 
    108 H108       27.6266   31.7419    6.3741 H         1 UNK         0.0815 
    109 H109       28.9219   31.0224    7.3314 H         1 UNK         0.0815 
    110 H110       27.6030   31.0898    3.3974 H         1 UNK         0.2987 
    111 H111       27.6548   33.7062    2.3062 H         1 UNK         0.0949 
    112 H112       26.1987   32.6979    0.5304 H         1 UNK         0.0806 
    113 H113       26.5900   31.0861    1.1138 H         1 UNK         0.0806 
    114 H114       25.6894   32.2036    2.1367 H         1 UNK         0.0806 
    115 H115       29.3547   30.7473    1.3085 H         1 UNK         0.3010 
    116 H116       31.2434   32.4115   -0.2452 H         1 UNK         0.0829 
    117 H117       29.6274   31.5206   -1.9612 H         1 UNK         0.0813 
    118 H118       31.2511   30.8828   -2.1694 H         1 UNK         0.0813 
    119 H119       30.0086   29.8772   -1.4471 H         1 UNK         0.0813 
    120 H120       30.4510   29.2432    1.2648 H         1 UNK         0.3038 
    121 H121       33.2925   28.4999    1.5006 H         1 UNK         0.0769 
    122 H122       30.7161   27.1953    2.5380 H         1 UNK         0.0811 
    123 H123       32.3324   26.5243    2.6779 H         1 UNK         0.0811 
    124 H124       31.6101   26.7405    1.0910 H         1 UNK         0.0811 
    125 H125       34.1466   30.2093    2.6991 H         1 UNK         0.3204 
    126 H126       32.9915   31.3348    5.0323 H         1 UNK         0.0748 
    127 H127       35.2105   32.4589    5.2511 H         1 UNK         0.0771 
    128 H128       35.8957   31.3769    4.0469 H         1 UNK         0.0771 
    129 H129       34.6319   32.5234    3.5954 H         1 UNK         0.0771 
    130 H130       34.7892   28.4077    4.6839 H         1 UNK         0.2980 
    131 H131       35.4251   26.8057    6.0237 H         1 UNK         0.0545 
    132 H132       36.2919   26.6737    8.8180 H         1 UNK         0.3459 
    133 H133       37.7706   27.5970    8.8602 H         1 UNK         0.3459 
    134 H134       33.8864   28.0564    8.3499 H         1 UNK         0.0616 
    135 H135       34.3604   26.3858    8.1993 H         1 UNK         0.0616 
    136 H136       32.6037   24.5809    7.4566 H         1 UNK         0.0634 
    137 H137       33.5910   24.9073    6.0473 H         1 UNK         0.0634 
@<TRIPOS>BOND
     1    1    2 1    
     2    1   72 1    
     3    1   73 1    
     4    1   74 1    
     5    2    3 2    
     6    2    4 am   BACKBONE|DICT|INTERRES
     7    4    5 1    
     8    4   75 1    
     9    5    6 1    
    10    5   35 1    
    11    5   76 1    
    12    6    7 1    
    13    6   77 1    
    14    6   78 1    
    15    7    8 1    
    16    8    9 1    
    17    8   79 1    
    18    8   80 1    
    19    9   10 ar   
    20    9   14 ar   
    21   10   11 ar   
    22   10   81 1    
    23   11   12 ar   
    24   11   71 1    
    25   12   13 ar   
    26   12   82 1    
    27   13   14 ar   
    28   13   15 1    
    29   14   83 1    
    30   15   16 1    
    31   15   84 1    
    32   15   85 1    
    33   16   17 1    
    34   17   18 1    
    35   17   86 1    
    36   17   87 1    
    37   18   19 1    
    38   18   37 1    
    39   18   88 1    
    40   19   20 am   BACKBONE|DICT|INTERRES
    41   19   89 1    
    42   20   21 2    
    43   20   22 1    
    44   22   23 1    
    45   22   24 1    
    46   22   90 1    
    47   23   91 1    
    48   23   92 1    
    49   23   93 1    
    50   24   25 am   BACKBONE|DICT|INTERRES
    51   24   94 1    
    52   25   26 2    
    53   25   27 1    
    54   27   28 1    
    55   27   29 1    
    56   27   95 1    
    57   28   96 1    
    58   28   97 1    
    59   28   98 1    
    60   29   30 am   BACKBONE|DICT|INTERRES
    61   29   99 1    
    62   30   31 2    
    63   30   32 1    
    64   32   33 1    
    65   32   34 1    
    66   32  100 1    
    67   33  101 1    
    68   33  102 1    
    69   33  103 1    
    70   34   35 am   BACKBONE|DICT|INTERRES
    71   34  104 1    
    72   35   36 2    
    73   37   38 2    
    74   37   39 am   BACKBONE|DICT|INTERRES
    75   39   40 1    
    76   39  105 1    
    77   40   41 1    
    78   40   42 1    
    79   40  106 1    
    80   41  107 1    
    81   41  108 1    
    82   41  109 1    
    83   42   43 2    
    84   42   44 am   BACKBONE|DICT|INTERRES
    85   44   45 1    
    86   44  110 1    
    87   45   46 1    
    88   45   47 1    
    89   45  111 1    
    90   46  112 1    
    91   46  113 1    
    92   46  114 1    
    93   47   48 2    
    94   47   49 am   BACKBONE|DICT|INTERRES
    95   49   50 1    
    96   49  115 1    
    97   50   51 1    
    98   50   52 1    
    99   50  116 1    
   100   51  117 1    
   101   51  118 1    
   102   51  119 1    
   103   52   53 2    
   104   52   54 am   BACKBONE|DICT|INTERRES
   105   54   55 1    
   106   54  120 1    
   107   55   56 1    
   108   55   57 1    
   109   55  121 1    
   110   56  122 1    
   111   56  123 1    
   112   56  124 1    
   113   57   58 2    
   114   57   59 am   BACKBONE|DICT|INTERRES
   115   59   60 1    
   116   59  125 1    
   117   60   61 1    
   118   60   62 1    
   119   60  126 1    
   120   61  127 1    
   121   61  128 1    
   122   61  129 1    
   123   62   63 2    
   124   62   64 am   BACKBONE|DICT|INTERRES
   125   64   65 1    
   126   64  130 1    
   127   65   66 1    
   128   65   69 1    
   129   65  131 1    
   130   66   67 am   BACKBONE|DICT|INTERRES
   131   66   68 2    
   132   67  132 1    
   133   67  133 1    
   134   69   70 1    
   135   69  134 1    
   136   69  135 1    
   137   70   71 1    
   138   71  136 1    
   139   71  137 1    
@<TRIPOS>SUBSTRUCTURE
     1 UNK         1 GROUP             0       ****    0 ROOT    
