@<TRIPOS>MOLECULE
3R136
137   139    1
SMALL
USER_CHARGES


@<TRIPOS>ATOM
      1 CA         30.6012   28.7145   -4.0658 C.3       0 UNK        -0.1979 
      2 C          29.8601   28.4135   -2.7721 C.2       0 UNK         0.4864 
      3 O          29.3861   29.3357   -2.1115 O.2       0 UNK        -0.5359 
      4 N          29.7501   27.1280   -2.4101 N.am      1 UNK        -0.4318 
      5 CA         29.1492   26.6423   -1.1579 C.3       1 UNK         0.0824 
      6 C6         29.4991   25.1567   -0.8827 C.3       12 UNK        -0.0944 
      7 S7         31.2806   24.7956   -1.0208 S.3       12 UNK        -0.2672 
      8 C8         31.4597   23.3787    0.1126 C.3       12 UNK         0.0333 
      9 C9         31.6770   23.7803    1.5686 C.ar      12 UNK        -0.0807 
     10 C10        32.6380   24.7391    1.9081 C.ar      12 UNK        -0.0894 
     11 C11        32.9008   25.0459    3.2464 C.ar      12 UNK        -0.0804 
     12 C12        32.1942   24.3813    4.2531 C.ar      12 UNK        -0.0824 
     13 C13        31.2287   23.4229    3.9310 C.ar      12 UNK        -0.0762 
     14 C14        30.9719   23.1301    2.5872 C.ar      12 UNK        -0.0782 
     15 C15        30.4990   22.6727    5.0391 C.3       12 UNK         0.0230 
     16 S16        28.7076   23.0002    5.0581 S.3       12 UNK        -0.2608 
     17 C17        28.6488   24.8032    5.3298 C.3       12 UNK        -0.0989 
     18 CA         28.3522   25.6038    4.0312 C.3       5 UNK         0.0716 
     19 N          27.0258   25.3127    3.4903 N.am      5 UNK        -0.4135 
     20 C          26.7319   24.4861    2.4831 C.2       4 UNK         0.5031 
     21 O          27.5623   23.7875    1.8979 O.2       4 UNK        -0.5229 
     22 CA         25.2570   24.4145    2.0523 C.3       4 UNK         0.0329 
     23 CB         24.3795   25.5747    2.5712 C.3       4 UNK        -0.2001 
     24 N          25.2047   24.3885    0.5955 N.am      4 UNK        -0.4303 
     25 C          24.3802   23.6431   -0.1497 C.2       3 UNK         0.5044 
     26 O          23.5421   22.8742    0.3256 O.2       3 UNK        -0.5152 
     27 CA         24.5216   23.7632   -1.6843 C.3       3 UNK         0.0319 
     28 CB         23.1999   23.4768   -2.4297 C.3       3 UNK        -0.2001 
     29 N          25.1114   25.0349   -2.1275 N.am      3 UNK        -0.4354 
     30 C          24.6205   26.2712   -1.9389 C.2       2 UNK         0.4964 
     31 O          23.5226   26.5057   -1.4314 O.2       2 UNK        -0.5047 
     32 CA         25.5325   27.4389   -2.3714 C.3       2 UNK         0.0288 
     33 CB         25.1711   28.7657   -1.6679 C.3       2 UNK        -0.2113 
     34 N          26.9681   27.1557   -2.2142 N.am      2 UNK        -0.4145 
     35 C          27.6187   26.8449   -1.0792 C.2       1 UNK         0.5006 
     36 O          27.0559   26.6871    0.0043 O.2       1 UNK        -0.5103 
     37 C          28.4083   27.1201    4.2966 C.2       5 UNK         0.5055 
     38 O          27.3823   27.7997    4.1947 O.2       5 UNK        -0.5220 
     39 N          29.6001   27.6278    4.6416 N.am      6 UNK        -0.4450 
     40 CA         29.9204   29.0066    5.0520 C.3       6 UNK         0.0367 
     41 CB         29.0928   29.4521    6.2730 C.3       6 UNK        -0.1929 
     42 C          29.8678   30.0596    3.9328 C.2       6 UNK         0.5070 
     43 O          30.6617   30.9996    3.9613 O.2       6 UNK        -0.5237 
     44 N          28.9805   29.8828    2.9472 N.am      7 UNK        -0.4739 
     45 CA         28.8213   30.7655    1.7863 C.3       7 UNK         0.0276 
     46 CB         27.6070   30.3014    0.9666 C.3       7 UNK        -0.1927 
     47 C          30.0722   30.8634    0.8911 C.2       7 UNK         0.5013 
     48 O          30.2382   31.8745    0.2076 O.2       7 UNK        -0.5193 
     49 N          30.9228   29.8259    0.9222 N.am      8 UNK        -0.4253 
     50 CA         32.1696   29.7393    0.1647 C.3       8 UNK         0.0242 
     51 CB         32.7218   28.3050    0.2297 C.3       8 UNK        -0.2000 
     52 C          33.2206   30.7650    0.6200 C.2       8 UNK         0.4948 
     53 O          33.6858   31.5494   -0.2083 O.2       8 UNK        -0.5275 
     54 N          33.5834   30.7391    1.9114 N.am      9 UNK        -0.4246 
     55 CA         34.6381   31.5801    2.4877 C.3       9 UNK         0.0261 
     56 CB         36.0271   31.1453    1.9613 C.3       9 UNK        -0.1959 
     57 C          34.5787   31.5818    4.0246 C.2       9 UNK         0.5033 
     58 O          35.6071   31.3707    4.6712 O.2       9 UNK        -0.5390 
     59 N          33.3813   31.7788    4.5976 N.am      10 UNK        -0.4215 
     60 CA         33.0463   31.8052    6.0346 C.3       10 UNK         0.0240 
     61 CB         33.8356   32.8875    6.7979 C.3       10 UNK        -0.1982 
     62 C          33.1480   30.4361    6.7321 C.2       10 UNK         0.4970 
     63 O          32.2545   30.0918    7.5053 O.2       10 UNK        -0.4916 
     64 N          34.2005   29.6739    6.4164 N.am      11 UNK        -0.4279 
     65 CA         34.4047   28.2550    6.7512 C.3       11 UNK         0.1003 
     66 C          34.5869   27.9496    8.2694 C.2       11 UNK         0.5709 
     67 N          34.8872   28.9336    9.1086 N.am      11 UNK        -0.7358 
     68 O          34.4919   26.7996    8.6923 O.2       11 UNK        -0.4999 
     69 C69        33.3600   27.3276    6.0626 C.3       12 UNK        -0.0954 
     70 S70        33.2639   27.6016    4.2539 S.3       12 UNK        -0.2268 
     71 C71        33.9774   26.0643    3.5960 C.3       12 UNK         0.0203 
     72 H72        31.4585   29.3560   -3.8637 H         1 UNK         0.0888 
     73 H73        30.9630   27.8074   -4.5497 H         1 UNK         0.0888 
     74 H74        29.9439   29.2333   -4.7631 H         1 UNK         0.0888 
     75 H75        30.1752   26.4139   -2.9852 H         1 UNK         0.3017 
     76 H76        29.5738   27.2386   -0.3476 H         1 UNK         0.0873 
     77 H77        29.1718   24.8799    0.1209 H         1 UNK         0.0745 
     78 H78        28.9696   24.4965   -1.5724 H         1 UNK         0.0745 
     79 H79        32.3207   22.7910   -0.2079 H         1 UNK         0.0705 
     80 H80        30.5903   22.7271    0.0103 H         1 UNK         0.0705 
     81 H81        33.1985   25.2319    1.1255 H         1 UNK         0.1334 
     82 H82        32.4068   24.5983    5.2899 H         1 UNK         0.1417 
     83 H83        30.2305   22.3820    2.3395 H         1 UNK         0.1562 
     84 H84        30.9138   22.9188    6.0178 H         1 UNK         0.0748 
     85 H85        30.6569   21.6018    4.9039 H         1 UNK         0.0748 
     86 H86        29.5923   25.1150    5.7810 H         1 UNK         0.0940 
     87 H87        27.8822   25.0031    6.0812 H         1 UNK         0.0940 
     88 H88        29.1104   25.3797    3.2777 H         1 UNK         0.0703 
     89 H89        26.3036   25.9286    3.8401 H         1 UNK         0.3081 
     90 H90        24.8669   23.4764    2.4520 H         1 UNK         0.0719 
     91 H91        24.7654   26.5450    2.2537 H         1 UNK         0.0809 
     92 H92        23.3594   25.4904    2.1956 H         1 UNK         0.0809 
     93 H93        24.3142   25.5741    3.6598 H         1 UNK         0.0809 
     94 H94        25.8797   24.9938    0.1397 H         1 UNK         0.2990 
     95 H95        25.2324   22.9881   -1.9744 H         1 UNK         0.0690 
     96 H96        23.3268   23.5580   -3.5091 H         1 UNK         0.0788 
     97 H97        22.4087   24.1652   -2.1315 H         1 UNK         0.0788 
     98 H98        22.8443   22.4667   -2.2228 H         1 UNK         0.0788 
     99 H99        26.0197   24.9605   -2.5636 H         1 UNK         0.2993 
    100 H100       25.3592   27.5742   -3.4401 H         1 UNK         0.0949 
    101 H101       25.2492   28.6814   -0.5832 H         1 UNK         0.0767 
    102 H102       25.8273   29.5754   -1.9876 H         1 UNK         0.0767 
    103 H103       24.1487   29.0675   -1.8982 H         1 UNK         0.0767 
    104 H104       27.5262   27.2479   -3.0515 H         1 UNK         0.3013 
    105 H105       30.3940   27.0015    4.6366 H         1 UNK         0.3121 
    106 H106       30.9589   28.9769    5.3737 H         1 UNK         0.0774 
    107 H107       29.4364   30.4213    6.6372 H         1 UNK         0.0815 
    108 H108       28.0329   29.5536    6.0390 H         1 UNK         0.0815 
    109 H109       29.1923   28.7462    7.0973 H         1 UNK         0.0815 
    110 H110       28.3209   29.1177    3.0487 H         1 UNK         0.2987 
    111 H111       28.6180   31.7702    2.1631 H         1 UNK         0.0949 
    112 H112       27.4481   30.9461    0.1009 H         1 UNK         0.0806 
    113 H113       27.7428   29.2874    0.5922 H         1 UNK         0.0806 
    114 H114       26.6923   30.3211    1.5593 H         1 UNK         0.0806 
    115 H115       30.6958   29.0531    1.5289 H         1 UNK         0.3010 
    116 H116       31.9336   29.9577   -0.8791 H         1 UNK         0.0829 
    117 H117       32.0326   27.5972   -0.2286 H         1 UNK         0.0813 
    118 H118       33.6668   28.2251   -0.3091 H         1 UNK         0.0813 
    119 H119       32.9019   27.9792    1.2539 H         1 UNK         0.0813 
    120 H120       33.1474   30.0723    2.5343 H         1 UNK         0.3038 
    121 H121       34.4621   32.6117    2.1756 H         1 UNK         0.0769 
    122 H122       36.8199   31.7650    2.3824 H         1 UNK         0.0811 
    123 H123       36.1018   31.2379    0.8783 H         1 UNK         0.0811 
    124 H124       36.2463   30.1097    2.2239 H         1 UNK         0.0811 
    125 H125       32.5664   31.8451    3.9945 H         1 UNK         0.3204 
    126 H126       31.9937   32.0900    6.0770 H         1 UNK         0.0748 
    127 H127       33.4821   32.9700    7.8266 H         1 UNK         0.0771 
    128 H128       34.9024   32.6673    6.8417 H         1 UNK         0.0771 
    129 H129       33.7139   33.8665    6.3345 H         1 UNK         0.0771 
    130 H130       34.8946   30.0904    5.8003 H         1 UNK         0.2980 
    131 H131       35.3736   28.0071    6.3170 H         1 UNK         0.0545 
    132 H132       35.0151   28.7283   10.0868 H         1 UNK         0.3459 
    133 H133       34.9716   29.8794    8.7729 H         1 UNK         0.3459 
    134 H134       32.3702   27.4822    6.4932 H         1 UNK         0.0616 
    135 H135       33.6056   26.2832    6.2549 H         1 UNK         0.0616 
    136 H136       34.6852   25.6342    4.3058 H         1 UNK         0.0634 
    137 H137       34.5609   26.3167    2.7093 H         1 UNK         0.0634 
@<TRIPOS>BOND
     1    1    2 1    
     2    1   72 1    
     3    1   73 1    
     4    1   74 1    
     5    2    3 2    
     6    2    4 am   BACKBONE|DICT|INTERRES
     7    4    5 1    
     8    4   75 1    
     9    5    6 1    
    10    5   35 1    
    11    5   76 1    
    12    6    7 1    
    13    6   77 1    
    14    6   78 1    
    15    7    8 1    
    16    8    9 1    
    17    8   79 1    
    18    8   80 1    
    19    9   10 ar   
    20    9   14 ar   
    21   10   11 ar   
    22   10   81 1    
    23   11   12 ar   
    24   11   71 1    
    25   12   13 ar   
    26   12   82 1    
    27   13   14 ar   
    28   13   15 1    
    29   14   83 1    
    30   15   16 1    
    31   15   84 1    
    32   15   85 1    
    33   16   17 1    
    34   17   18 1    
    35   17   86 1    
    36   17   87 1    
    37   18   19 1    
    38   18   37 1    
    39   18   88 1    
    40   19   20 am   BACKBONE|DICT|INTERRES
    41   19   89 1    
    42   20   21 2    
    43   20   22 1    
    44   22   23 1    
    45   22   24 1    
    46   22   90 1    
    47   23   91 1    
    48   23   92 1    
    49   23   93 1    
    50   24   25 am   BACKBONE|DICT|INTERRES
    51   24   94 1    
    52   25   26 2    
    53   25   27 1    
    54   27   28 1    
    55   27   29 1    
    56   27   95 1    
    57   28   96 1    
    58   28   97 1    
    59   28   98 1    
    60   29   30 am   BACKBONE|DICT|INTERRES
    61   29   99 1    
    62   30   31 2    
    63   30   32 1    
    64   32   33 1    
    65   32   34 1    
    66   32  100 1    
    67   33  101 1    
    68   33  102 1    
    69   33  103 1    
    70   34   35 am   BACKBONE|DICT|INTERRES
    71   34  104 1    
    72   35   36 2    
    73   37   38 2    
    74   37   39 am   BACKBONE|DICT|INTERRES
    75   39   40 1    
    76   39  105 1    
    77   40   41 1    
    78   40   42 1    
    79   40  106 1    
    80   41  107 1    
    81   41  108 1    
    82   41  109 1    
    83   42   43 2    
    84   42   44 am   BACKBONE|DICT|INTERRES
    85   44   45 1    
    86   44  110 1    
    87   45   46 1    
    88   45   47 1    
    89   45  111 1    
    90   46  112 1    
    91   46  113 1    
    92   46  114 1    
    93   47   48 2    
    94   47   49 am   BACKBONE|DICT|INTERRES
    95   49   50 1    
    96   49  115 1    
    97   50   51 1    
    98   50   52 1    
    99   50  116 1    
   100   51  117 1    
   101   51  118 1    
   102   51  119 1    
   103   52   53 2    
   104   52   54 am   BACKBONE|DICT|INTERRES
   105   54   55 1    
   106   54  120 1    
   107   55   56 1    
   108   55   57 1    
   109   55  121 1    
   110   56  122 1    
   111   56  123 1    
   112   56  124 1    
   113   57   58 2    
   114   57   59 am   BACKBONE|DICT|INTERRES
   115   59   60 1    
   116   59  125 1    
   117   60   61 1    
   118   60   62 1    
   119   60  126 1    
   120   61  127 1    
   121   61  128 1    
   122   61  129 1    
   123   62   63 2    
   124   62   64 am   BACKBONE|DICT|INTERRES
   125   64   65 1    
   126   64  130 1    
   127   65   66 1    
   128   65   69 1    
   129   65  131 1    
   130   66   67 am   BACKBONE|DICT|INTERRES
   131   66   68 2    
   132   67  132 1    
   133   67  133 1    
   134   69   70 1    
   135   69  134 1    
   136   69  135 1    
   137   70   71 1    
   138   71  136 1    
   139   71  137 1    
@<TRIPOS>SUBSTRUCTURE
     1 UNK         1 GROUP             0       ****    0 ROOT    
