@<TRIPOS>MOLECULE
3R136
137   139    1
SMALL
USER_CHARGES


@<TRIPOS>ATOM
      1 CA         31.3885   25.9082   -4.0400 C.3       0 UNK        -0.1979 
      2 C          30.3284   26.0310   -2.9568 C.2       0 UNK         0.4864 
      3 O          29.7313   27.0962   -2.8000 O.2       0 UNK        -0.5359 
      4 N          30.0684   24.9444   -2.2183 N.am      1 UNK        -0.4318 
      5 CA         29.1507   24.8703   -1.0702 C.3       1 UNK         0.0824 
      6 C6         29.5140   23.6938   -0.1137 C.3       12 UNK        -0.0944 
      7 S7         31.3022   23.5548    0.2426 S.3       12 UNK        -0.2672 
      8 C8         31.3486   22.7295    1.8725 C.3       12 UNK         0.0333 
      9 C9         31.7008   23.6750    3.0188 C.ar      12 UNK        -0.0807 
     10 C10        32.7605   24.5816    2.8952 C.ar      12 UNK        -0.0894 
     11 C11        33.0774   25.4595    3.9352 C.ar      12 UNK        -0.0804 
     12 C12        32.3534   25.3970    5.1275 C.ar      12 UNK        -0.0824 
     13 C13        31.3231   24.4672    5.2859 C.ar      12 UNK        -0.0762 
     14 C14        30.9944   23.6146    4.2255 C.ar      12 UNK        -0.0782 
     15 C15        30.5779   24.3827    6.6102 C.3       12 UNK         0.0230 
     16 S16        28.8485   24.9261    6.4680 S.3       12 UNK        -0.2608 
     17 C17        29.0241   26.6710    5.9472 C.3       12 UNK        -0.0989 
     18 CA         28.8915   26.8714    4.4138 C.3       5 UNK         0.0716 
     19 N          27.7715   26.1083    3.8612 N.am      5 UNK        -0.4135 
     20 C          27.4527   25.9805    2.5698 C.2       4 UNK         0.5031 
     21 O          28.0268   26.5799    1.6559 O.2       4 UNK        -0.5229 
     22 CA         26.2935   25.0173    2.2442 C.3       4 UNK         0.0329 
     23 CB         25.4461   24.5921    3.4667 C.3       4 UNK        -0.2001 
     24 N          25.4379   25.5501    1.1846 N.am      4 UNK        -0.4303 
     25 C          24.7607   26.7084    1.1971 C.2       3 UNK         0.5044 
     26 O          24.7157   27.4718    2.1638 O.2       3 UNK        -0.5152 
     27 CA         24.0681   27.0872   -0.1210 C.3       3 UNK         0.0319 
     28 CB         23.6144   28.5593   -0.1573 C.3       3 UNK        -0.2001 
     29 N          24.9955   26.8271   -1.2222 N.am      3 UNK        -0.4354 
     30 C          24.7842   25.9908   -2.2434 C.2       2 UNK         0.4964 
     31 O          23.7146   25.4221   -2.4630 O.2       2 UNK        -0.5047 
     32 CA         25.9890   25.7188   -3.1603 C.3       2 UNK         0.0288 
     33 CB         26.0455   26.7545   -4.2949 C.3       2 UNK        -0.2113 
     34 N          27.2865   25.6908   -2.4714 N.am      2 UNK        -0.4145 
     35 C          27.6633   24.8291   -1.5139 C.2       1 UNK         0.5006 
     36 O          26.8911   24.0096   -1.0117 O.2       1 UNK        -0.5103 
     37 C          28.8387   28.3741    4.0731 C.2       5 UNK         0.5055 
     38 O          29.8931   29.0006    3.9717 O.2       5 UNK        -0.5220 
     39 N          27.6274   28.9258    3.9001 N.am      6 UNK        -0.4450 
     40 CA         27.3912   30.3327    3.5707 C.3       6 UNK         0.0367 
     41 CB         25.8919   30.6487    3.6905 C.3       6 UNK        -0.1929 
     42 C          27.9172   30.7162    2.1793 C.2       6 UNK         0.5070 
     43 O          28.5608   31.7565    2.0441 O.2       6 UNK        -0.5237 
     44 N          27.6740   29.8560    1.1794 N.am      7 UNK        -0.4739 
     45 CA         28.1673   30.0371   -0.1920 C.3       7 UNK         0.0276 
     46 CB         27.4555   29.0591   -1.1353 C.3       7 UNK        -0.1927 
     47 C          29.6896   29.8628   -0.2980 C.2       7 UNK         0.5013 
     48 O          30.3301   30.5550   -1.0893 O.2       7 UNK        -0.5193 
     49 N          30.2363   28.9677    0.5331 N.am      8 UNK        -0.4253 
     50 CA         31.6688   28.7040    0.6553 C.3       8 UNK         0.0242 
     51 CB         31.8463   27.2686    1.1592 C.3       8 UNK        -0.2000 
     52 C          32.4117   29.7130    1.5571 C.2       8 UNK         0.4948 
     53 O          33.6242   29.5761    1.7236 O.2       8 UNK        -0.5275 
     54 N          31.6896   30.6987    2.1139 N.am      9 UNK        -0.4246 
     55 CA         32.1672   31.7941    2.9648 C.3       9 UNK         0.0261 
     56 CB         33.0975   32.7385    2.1734 C.3       9 UNK        -0.1959 
     57 C          32.7792   31.3224    4.2985 C.2       9 UNK         0.5033 
     58 O          33.7866   31.8784    4.7419 O.2       9 UNK        -0.5390 
     59 N          32.1542   30.3127    4.9215 N.am      10 UNK        -0.4215 
     60 CA         32.4155   29.7290    6.2471 C.3       10 UNK         0.0240 
     61 CB         32.2006   30.7704    7.3622 C.3       10 UNK        -0.1982 
     62 C          33.7649   29.0065    6.4261 C.2       10 UNK         0.4970 
     63 O          33.7966   28.0157    7.1546 O.2       10 UNK        -0.4916 
     64 N          34.8280   29.5026    5.7799 N.am      11 UNK        -0.4279 
     65 CA         36.2085   28.9821    5.7301 C.3       11 UNK         0.1003 
     66 C          36.9119   28.6947    7.0938 C.2       11 UNK         0.5709 
     67 N          36.4601   29.2697    8.2018 N.am      11 UNK        -0.7358 
     68 O          37.9130   27.9835    7.1480 O.2       11 UNK        -0.4999 
     69 C69        36.4174   27.8843    4.6428 C.3       12 UNK        -0.0954 
     70 S70        35.5391   26.3080    4.9205 S.3       12 UNK        -0.2268 
     71 C71        34.1608   26.5121    3.7522 C.3       12 UNK         0.0203 
     72 H72        32.1853   26.6307   -3.8657 H         1 UNK         0.0888 
     73 H73        31.8322   24.9130   -4.0651 H         1 UNK         0.0888 
     74 H74        30.9513   26.1111   -5.0172 H         1 UNK         0.0888 
     75 H75        30.5810   24.0936   -2.4026 H         1 UNK         0.3017 
     76 H76        29.2706   25.7950   -0.5031 H         1 UNK         0.0873 
     77 H77        29.1950   22.7393   -0.5368 H         1 UNK         0.0745 
     78 H78        28.9783   23.8073    0.8298 H         1 UNK         0.0745 
     79 H79        32.1046   21.9442    1.8368 H         1 UNK         0.0705 
     80 H80        30.3973   22.2278    2.0559 H         1 UNK         0.0705 
     81 H81        33.3218   24.6237    1.9721 H         1 UNK         0.1334 
     82 H82        32.6011   26.0705    5.9358 H         1 UNK         0.1417 
     83 H83        30.1892   22.9026    4.3466 H         1 UNK         0.1562 
     84 H84        31.0762   24.9754    7.3793 H         1 UNK         0.0748 
     85 H85        30.5946   23.3507    6.9634 H         1 UNK         0.0748 
     86 H86        29.9800   27.0609    6.3018 H         1 UNK         0.0940 
     87 H87        28.2556   27.2395    6.4753 H         1 UNK         0.0940 
     88 H88        29.7928   26.4777    3.9403 H         1 UNK         0.0703 
     89 H89        27.2508   25.5669    4.5360 H         1 UNK         0.3081 
     90 H90        26.7551   24.1176    1.8361 H         1 UNK         0.0719 
     91 H91        25.0068   25.4479    3.9811 H         1 UNK         0.0809 
     92 H92        24.6278   23.9386    3.1640 H         1 UNK         0.0809 
     93 H93        26.0396   24.0326    4.1911 H         1 UNK         0.0809 
     94 H94        25.4673   25.0276    0.3169 H         1 UNK         0.2990 
     95 H95        23.1828   26.4538   -0.2065 H         1 UNK         0.0690 
     96 H96        23.1885   28.8198   -1.1263 H         1 UNK         0.0788 
     97 H97        24.4357   29.2464    0.0464 H         1 UNK         0.0788 
     98 H98        22.8462   28.7452    0.5943 H         1 UNK         0.0788 
     99 H99        25.9195   27.2213   -1.1236 H         1 UNK         0.2993 
    100 H100       25.8377   24.7326   -3.6045 H         1 UNK         0.0949 
    101 H101       26.8307   26.5143   -5.0122 H         1 UNK         0.0767 
    102 H102       25.1038   26.7842   -4.8452 H         1 UNK         0.0767 
    103 H103       26.2344   27.7596   -3.9155 H         1 UNK         0.0767 
    104 H104       28.0014   26.3341   -2.8042 H         1 UNK         0.3013 
    105 H105       26.8129   28.3319    3.9718 H         1 UNK         0.3121 
    106 H106       27.9261   30.9401    4.3043 H         1 UNK         0.0774 
    107 H107       25.6964   31.6990    3.4694 H         1 UNK         0.0815 
    108 H108       25.2945   30.0539    2.9982 H         1 UNK         0.0815 
    109 H109       25.5251   30.4580    4.6991 H         1 UNK         0.0815 
    110 H110       27.1776   28.9999    1.3878 H         1 UNK         0.2987 
    111 H111       27.9315   31.0549   -0.5114 H         1 UNK         0.0949 
    112 H112       27.5828   28.0292   -0.8028 H         1 UNK         0.0806 
    113 H113       26.3928   29.2840   -1.2041 H         1 UNK         0.0806 
    114 H114       27.8607   29.1274   -2.1463 H         1 UNK         0.0806 
    115 H115       29.6219   28.4426    1.1418 H         1 UNK         0.3010 
    116 H116       32.1198   28.7687   -0.3372 H         1 UNK         0.0829 
    117 H117       31.3222   26.5561    0.5238 H         1 UNK         0.0813 
    118 H118       32.8984   26.9870    1.1509 H         1 UNK         0.0813 
    119 H119       31.4722   27.1510    2.1766 H         1 UNK         0.0813 
    120 H120       30.6927   30.6980    1.9395 H         1 UNK         0.3038 
    121 H121       31.2784   32.3664    3.2349 H         1 UNK         0.0769 
    122 H122       33.3419   33.6267    2.7574 H         1 UNK         0.0811 
    123 H123       32.6261   33.0784    1.2513 H         1 UNK         0.0811 
    124 H124       34.0385   32.2540    1.9112 H         1 UNK         0.0811 
    125 H125       31.3538   29.8974    4.4408 H         1 UNK         0.3204 
    126 H126       31.6483   28.9631    6.3696 H         1 UNK         0.0748 
    127 H127       32.2973   30.3124    8.3476 H         1 UNK         0.0771 
    128 H128       32.9279   31.5812    7.3089 H         1 UNK         0.0771 
    129 H129       31.2044   31.2094    7.3064 H         1 UNK         0.0771 
    130 H130       34.6702   30.3701    5.2718 H         1 UNK         0.2980 
    131 H131       36.7729   29.8407    5.3649 H         1 UNK         0.0545 
    132 H132       36.9282   29.0925    9.0763 H         1 UNK         0.3459 
    133 H133       35.6392   29.8522    8.1747 H         1 UNK         0.3459 
    134 H134       36.1234   28.2848    3.6712 H         1 UNK         0.0616 
    135 H135       37.4795   27.6561    4.5397 H         1 UNK         0.0616 
    136 H136       34.5650   26.4839    2.7396 H         1 UNK         0.0634 
    137 H137       33.7128   27.4986    3.8772 H         1 UNK         0.0634 
@<TRIPOS>BOND
     1    1    2 1    
     2    1   72 1    
     3    1   73 1    
     4    1   74 1    
     5    2    3 2    
     6    2    4 am   BACKBONE|DICT|INTERRES
     7    4    5 1    
     8    4   75 1    
     9    5    6 1    
    10    5   35 1    
    11    5   76 1    
    12    6    7 1    
    13    6   77 1    
    14    6   78 1    
    15    7    8 1    
    16    8    9 1    
    17    8   79 1    
    18    8   80 1    
    19    9   10 ar   
    20    9   14 ar   
    21   10   11 ar   
    22   10   81 1    
    23   11   12 ar   
    24   11   71 1    
    25   12   13 ar   
    26   12   82 1    
    27   13   14 ar   
    28   13   15 1    
    29   14   83 1    
    30   15   16 1    
    31   15   84 1    
    32   15   85 1    
    33   16   17 1    
    34   17   18 1    
    35   17   86 1    
    36   17   87 1    
    37   18   19 1    
    38   18   37 1    
    39   18   88 1    
    40   19   20 am   BACKBONE|DICT|INTERRES
    41   19   89 1    
    42   20   21 2    
    43   20   22 1    
    44   22   23 1    
    45   22   24 1    
    46   22   90 1    
    47   23   91 1    
    48   23   92 1    
    49   23   93 1    
    50   24   25 am   BACKBONE|DICT|INTERRES
    51   24   94 1    
    52   25   26 2    
    53   25   27 1    
    54   27   28 1    
    55   27   29 1    
    56   27   95 1    
    57   28   96 1    
    58   28   97 1    
    59   28   98 1    
    60   29   30 am   BACKBONE|DICT|INTERRES
    61   29   99 1    
    62   30   31 2    
    63   30   32 1    
    64   32   33 1    
    65   32   34 1    
    66   32  100 1    
    67   33  101 1    
    68   33  102 1    
    69   33  103 1    
    70   34   35 am   BACKBONE|DICT|INTERRES
    71   34  104 1    
    72   35   36 2    
    73   37   38 2    
    74   37   39 am   BACKBONE|DICT|INTERRES
    75   39   40 1    
    76   39  105 1    
    77   40   41 1    
    78   40   42 1    
    79   40  106 1    
    80   41  107 1    
    81   41  108 1    
    82   41  109 1    
    83   42   43 2    
    84   42   44 am   BACKBONE|DICT|INTERRES
    85   44   45 1    
    86   44  110 1    
    87   45   46 1    
    88   45   47 1    
    89   45  111 1    
    90   46  112 1    
    91   46  113 1    
    92   46  114 1    
    93   47   48 2    
    94   47   49 am   BACKBONE|DICT|INTERRES
    95   49   50 1    
    96   49  115 1    
    97   50   51 1    
    98   50   52 1    
    99   50  116 1    
   100   51  117 1    
   101   51  118 1    
   102   51  119 1    
   103   52   53 2    
   104   52   54 am   BACKBONE|DICT|INTERRES
   105   54   55 1    
   106   54  120 1    
   107   55   56 1    
   108   55   57 1    
   109   55  121 1    
   110   56  122 1    
   111   56  123 1    
   112   56  124 1    
   113   57   58 2    
   114   57   59 am   BACKBONE|DICT|INTERRES
   115   59   60 1    
   116   59  125 1    
   117   60   61 1    
   118   60   62 1    
   119   60  126 1    
   120   61  127 1    
   121   61  128 1    
   122   61  129 1    
   123   62   63 2    
   124   62   64 am   BACKBONE|DICT|INTERRES
   125   64   65 1    
   126   64  130 1    
   127   65   66 1    
   128   65   69 1    
   129   65  131 1    
   130   66   67 am   BACKBONE|DICT|INTERRES
   131   66   68 2    
   132   67  132 1    
   133   67  133 1    
   134   69   70 1    
   135   69  134 1    
   136   69  135 1    
   137   70   71 1    
   138   71  136 1    
   139   71  137 1    
@<TRIPOS>SUBSTRUCTURE
     1 UNK         1 GROUP             0       ****    0 ROOT    
