@<TRIPOS>MOLECULE
3R136
137   139    1
SMALL
USER_CHARGES


@<TRIPOS>ATOM
      1 CA         25.8201   22.2937   -0.5223 C.3       0 UNK        -0.1979 
      2 C          26.9425   23.0662    0.1533 C.2       0 UNK         0.4864 
      3 O          26.9547   24.2988    0.0919 O.2       0 UNK        -0.5359 
      4 N          27.8692   22.3476    0.8036 N.am      1 UNK        -0.4318 
      5 CA         29.0257   22.8706    1.5395 C.3       1 UNK         0.0824 
      6 C6         29.8745   21.7011    2.1100 C.3       12 UNK        -0.0944 
      7 S7         31.3024   22.1656    3.1548 S.3       12 UNK        -0.2672 
      8 C8         32.6784   22.2048    1.9634 C.3       12 UNK         0.0333 
      9 C9         32.7746   23.5670    1.2973 C.ar      12 UNK        -0.0807 
     10 C10        33.4473   24.6108    1.9378 C.ar      12 UNK        -0.0894 
     11 C11        33.4994   25.8838    1.3624 C.ar      12 UNK        -0.0804 
     12 C12        32.8747   26.1056    0.1298 C.ar      12 UNK        -0.0824 
     13 C13        32.2228   25.0599   -0.5324 C.ar      12 UNK        -0.0762 
     14 C14        32.1862   23.7907    0.0513 C.ar      12 UNK        -0.0782 
     15 C15        31.5605   25.2828   -1.8827 C.3       12 UNK         0.0230 
     16 S16        29.7489   25.3280   -1.7257 S.3       12 UNK        -0.2608 
     17 C17        29.4560   27.0371   -1.1598 C.3       12 UNK        -0.0989 
     18 CA         28.2643   27.6791   -1.9118 C.3       5 UNK         0.0716 
     19 N          27.0159   26.9694   -1.6236 N.am      5 UNK        -0.4135 
     20 C          25.8246   27.2063   -2.1907 C.2       4 UNK         0.5031 
     21 O          25.6444   28.0042   -3.1121 O.2       4 UNK        -0.5229 
     22 CA         24.6286   26.4153   -1.6378 C.3       4 UNK         0.0329 
     23 CB         24.4124   25.1339   -2.4584 C.3       4 UNK        -0.2001 
     24 N          24.8275   26.0634   -0.2300 N.am      4 UNK        -0.4303 
     25 C          24.4647   26.8300    0.8064 C.2       3 UNK         0.5044 
     26 O          23.8406   27.8858    0.6961 O.2       3 UNK        -0.5152 
     27 CA         24.8775   26.3418    2.2005 C.3       3 UNK         0.0319 
     28 CB         24.1672   25.0276    2.5709 C.3       3 UNK        -0.2001 
     29 N          26.3284   26.1578    2.2821 N.am      3 UNK        -0.4354 
     30 C          27.1122   26.6641    3.2458 C.2       2 UNK         0.4964 
     31 O          26.6862   27.3666    4.1641 O.2       2 UNK        -0.5047 
     32 CA         28.6242   26.3463    3.1876 C.3       2 UNK         0.0288 
     33 CB         29.2626   26.2548    4.5903 C.3       2 UNK        -0.2113 
     34 N          28.9687   25.1613    2.3920 N.am      2 UNK        -0.4145 
     35 C          28.5850   23.8931    2.6082 C.2       1 UNK         0.5006 
     36 O          27.8828   23.5214    3.5518 O.2       1 UNK        -0.5103 
     37 C          28.1534   29.1796   -1.5698 C.2       5 UNK         0.5055 
     38 O          27.4735   29.5446   -0.6071 O.2       5 UNK        -0.5220 
     39 N          28.8446   30.0171   -2.3573 N.am      6 UNK        -0.4450 
     40 CA         28.9244   31.4677   -2.1520 C.3       6 UNK         0.0367 
     41 CB         29.5268   32.1330   -3.4002 C.3       6 UNK        -0.1929 
     42 C          29.7275   31.8455   -0.8951 C.2       6 UNK         0.5070 
     43 O          29.3923   32.8285   -0.2332 O.2       6 UNK        -0.5237 
     44 N          30.7573   31.0487   -0.5821 N.am      7 UNK        -0.4739 
     45 CA         31.4777   31.0965    0.6874 C.3       7 UNK         0.0276 
     46 CB         32.8947   30.5347    0.4884 C.3       7 UNK        -0.1927 
     47 C          30.7114   30.2756    1.7348 C.2       7 UNK         0.5013 
     48 O          30.2175   29.1923    1.4139 O.2       7 UNK        -0.5193 
     49 N          30.6523   30.7912    2.9645 N.am      8 UNK        -0.4253 
     50 CA         30.0229   30.1659    4.1222 C.3       8 UNK         0.0242 
     51 CB         28.4945   30.3476    4.0597 C.3       8 UNK        -0.2000 
     52 C          30.6120   30.8012    5.3865 C.2       8 UNK         0.4948 
     53 O          31.2699   31.8428    5.2935 O.2       8 UNK        -0.5275 
     54 N          30.3807   30.1595    6.5411 N.am      9 UNK        -0.4246 
     55 CA         30.8445   30.5118    7.8947 C.3       9 UNK         0.0261 
     56 CB         30.3172   31.8889    8.3454 C.3       9 UNK        -0.1959 
     57 C          32.3693   30.4023    8.0733 C.2       9 UNK         0.5033 
     58 O          32.8262   29.6379    8.9244 O.2       9 UNK        -0.5390 
     59 N          33.1302   31.1091    7.2272 N.am      10 UNK        -0.4215 
     60 CA         34.5925   31.0397    7.1184 C.3       10 UNK         0.0240 
     61 CB         35.0745   32.1270    6.1445 C.3       10 UNK        -0.1982 
     62 C          35.1083   29.6554    6.6791 C.2       10 UNK         0.4970 
     63 O          36.2651   29.3279    6.9451 O.2       10 UNK        -0.4916 
     64 N          34.2337   28.8685    6.0404 N.am      11 UNK        -0.4279 
     65 CA         34.4303   27.4546    5.6982 C.3       11 UNK         0.1003 
     66 C          34.5431   26.5031    6.9270 C.2       11 UNK         0.5709 
     67 N          34.1462   26.9075    8.1298 N.am      11 UNK        -0.7358 
     68 O          35.0050   25.3739    6.7831 O.2       11 UNK        -0.4999 
     69 C69        33.3225   26.9563    4.7333 C.3       12 UNK        -0.0954 
     70 S70        33.2024   27.9467    3.2058 S.3       12 UNK        -0.2268 
     71 C71        34.2553   27.0102    2.0546 C.3       12 UNK         0.0203 
     72 H72        24.8561   22.7469   -0.2937 H         1 UNK         0.0888 
     73 H73        25.9571   22.3045   -1.6030 H         1 UNK         0.0888 
     74 H74        25.7883   21.2548   -0.1947 H         1 UNK         0.0888 
     75 H75        27.7689   21.3432    0.8248 H         1 UNK         0.3017 
     76 H76        29.6338   23.3976    0.8052 H         1 UNK         0.0873 
     77 H77        29.2391   21.0580    2.7220 H         1 UNK         0.0745 
     78 H78        30.2265   21.0690    1.2934 H         1 UNK         0.0745 
     79 H79        33.6074   21.9934    2.4951 H         1 UNK         0.0705 
     80 H80        32.5670   21.4112    1.2230 H         1 UNK         0.0705 
     81 H81        33.9264   24.4265    2.8887 H         1 UNK         0.1334 
     82 H82        32.9076   27.0885   -0.3189 H         1 UNK         0.1417 
     83 H83        31.6787   22.9824   -0.4581 H         1 UNK         0.1562 
     84 H84        31.8319   24.4658   -2.5530 H         1 UNK         0.0748 
     85 H85        31.9231   26.1953   -2.3583 H         1 UNK         0.0748 
     86 H86        30.3647   27.6240   -1.3055 H         1 UNK         0.0940 
     87 H87        29.2769   27.0291   -0.0830 H         1 UNK         0.0940 
     88 H88        28.4411   27.5927   -2.9862 H         1 UNK         0.0703 
     89 H89        27.0753   26.2455   -0.9202 H         1 UNK         0.3081 
     90 H90        23.7364   27.0375   -1.7365 H         1 UNK         0.0719 
     91 H91        24.1834   25.3738   -3.4976 H         1 UNK         0.0809 
     92 H92        25.3008   24.5020   -2.4610 H         1 UNK         0.0809 
     93 H93        23.5800   24.5470   -2.0700 H         1 UNK         0.0809 
     94 H94        25.3962   25.2400   -0.0514 H         1 UNK         0.2990 
     95 H95        24.5522   27.1068    2.9088 H         1 UNK         0.0690 
     96 H96        24.3837   24.7437    3.6010 H         1 UNK         0.0788 
     97 H97        24.4738   24.2008    1.9298 H         1 UNK         0.0788 
     98 H98        23.0847   25.1289    2.4828 H         1 UNK         0.0788 
     99 H99        26.7517   25.5776    1.5644 H         1 UNK         0.2993 
    100 H100       29.0814   27.1932    2.6753 H         1 UNK         0.0949 
    101 H101       28.8036   25.4701    5.1923 H         1 UNK         0.0767 
    102 H102       30.3287   26.0418    4.5214 H         1 UNK         0.0767 
    103 H103       29.1500   27.1897    5.1391 H         1 UNK         0.0767 
    104 H104       29.5336   25.3455    1.5743 H         1 UNK         0.3013 
    105 H105       29.3637   29.6407   -3.1380 H         1 UNK         0.3121 
    106 H106       27.9085   31.8470   -2.0203 H         1 UNK         0.0774 
    107 H107       30.5411   31.7835   -3.5973 H         1 UNK         0.0815 
    108 H108       28.9236   31.9353   -4.2865 H         1 UNK         0.0815 
    109 H109       29.5743   33.2161   -3.2783 H         1 UNK         0.0815 
    110 H110       30.9247   30.2399   -1.1606 H         1 UNK         0.2987 
    111 H111       31.5573   32.1332    1.0228 H         1 UNK         0.0949 
    112 H112       33.4450   31.0994   -0.2642 H         1 UNK         0.0806 
    113 H113       33.4669   30.5862    1.4157 H         1 UNK         0.0806 
    114 H114       32.8747   29.4896    0.1782 H         1 UNK         0.0806 
    115 H115       31.1271   31.6596    3.1824 H         1 UNK         0.3010 
    116 H116       30.2730   29.1033    4.1239 H         1 UNK         0.0829 
    117 H117       28.2149   31.4018    4.0611 H         1 UNK         0.0813 
    118 H118       28.0033   29.8761    4.9117 H         1 UNK         0.0813 
    119 H119       28.0760   29.8932    3.1612 H         1 UNK         0.0813 
    120 H120       29.8360   29.3090    6.4976 H         1 UNK         0.3038 
    121 H121       30.4015   29.7675    8.5587 H         1 UNK         0.0769 
    122 H122       30.5964   32.0908    9.3803 H         1 UNK         0.0811 
    123 H123       29.2294   31.9320    8.2902 H         1 UNK         0.0811 
    124 H124       30.7139   32.7045    7.7403 H         1 UNK         0.0811 
    125 H125       32.6369   31.6585    6.5248 H         1 UNK         0.3204 
    126 H126       35.0109   31.2461    8.1056 H         1 UNK         0.0748 
    127 H127       34.6645   31.9820    5.1439 H         1 UNK         0.0771 
    128 H128       34.7844   33.1212    6.4851 H         1 UNK         0.0771 
    129 H129       36.1619   32.1202    6.0568 H         1 UNK         0.0771 
    130 H130       33.3187   29.2403    5.8430 H         1 UNK         0.2980 
    131 H131       35.3850   27.3847    5.1739 H         1 UNK         0.0545 
    132 H132       33.7659   27.8345    8.2752 H         1 UNK         0.3459 
    133 H133       34.2319   26.2758    8.9099 H         1 UNK         0.3459 
    134 H134       32.3530   27.0019    5.2311 H         1 UNK         0.0616 
    135 H135       33.4752   25.9096    4.4747 H         1 UNK         0.0616 
    136 H136       35.1244   26.6182    2.5851 H         1 UNK         0.0634 
    137 H137       34.6463   27.7021    1.3073 H         1 UNK         0.0634 
@<TRIPOS>BOND
     1    1    2 1    
     2    1   72 1    
     3    1   73 1    
     4    1   74 1    
     5    2    3 2    
     6    2    4 am   BACKBONE|DICT|INTERRES
     7    4    5 1    
     8    4   75 1    
     9    5    6 1    
    10    5   35 1    
    11    5   76 1    
    12    6    7 1    
    13    6   77 1    
    14    6   78 1    
    15    7    8 1    
    16    8    9 1    
    17    8   79 1    
    18    8   80 1    
    19    9   10 ar   
    20    9   14 ar   
    21   10   11 ar   
    22   10   81 1    
    23   11   12 ar   
    24   11   71 1    
    25   12   13 ar   
    26   12   82 1    
    27   13   14 ar   
    28   13   15 1    
    29   14   83 1    
    30   15   16 1    
    31   15   84 1    
    32   15   85 1    
    33   16   17 1    
    34   17   18 1    
    35   17   86 1    
    36   17   87 1    
    37   18   19 1    
    38   18   37 1    
    39   18   88 1    
    40   19   20 am   BACKBONE|DICT|INTERRES
    41   19   89 1    
    42   20   21 2    
    43   20   22 1    
    44   22   23 1    
    45   22   24 1    
    46   22   90 1    
    47   23   91 1    
    48   23   92 1    
    49   23   93 1    
    50   24   25 am   BACKBONE|DICT|INTERRES
    51   24   94 1    
    52   25   26 2    
    53   25   27 1    
    54   27   28 1    
    55   27   29 1    
    56   27   95 1    
    57   28   96 1    
    58   28   97 1    
    59   28   98 1    
    60   29   30 am   BACKBONE|DICT|INTERRES
    61   29   99 1    
    62   30   31 2    
    63   30   32 1    
    64   32   33 1    
    65   32   34 1    
    66   32  100 1    
    67   33  101 1    
    68   33  102 1    
    69   33  103 1    
    70   34   35 am   BACKBONE|DICT|INTERRES
    71   34  104 1    
    72   35   36 2    
    73   37   38 2    
    74   37   39 am   BACKBONE|DICT|INTERRES
    75   39   40 1    
    76   39  105 1    
    77   40   41 1    
    78   40   42 1    
    79   40  106 1    
    80   41  107 1    
    81   41  108 1    
    82   41  109 1    
    83   42   43 2    
    84   42   44 am   BACKBONE|DICT|INTERRES
    85   44   45 1    
    86   44  110 1    
    87   45   46 1    
    88   45   47 1    
    89   45  111 1    
    90   46  112 1    
    91   46  113 1    
    92   46  114 1    
    93   47   48 2    
    94   47   49 am   BACKBONE|DICT|INTERRES
    95   49   50 1    
    96   49  115 1    
    97   50   51 1    
    98   50   52 1    
    99   50  116 1    
   100   51  117 1    
   101   51  118 1    
   102   51  119 1    
   103   52   53 2    
   104   52   54 am   BACKBONE|DICT|INTERRES
   105   54   55 1    
   106   54  120 1    
   107   55   56 1    
   108   55   57 1    
   109   55  121 1    
   110   56  122 1    
   111   56  123 1    
   112   56  124 1    
   113   57   58 2    
   114   57   59 am   BACKBONE|DICT|INTERRES
   115   59   60 1    
   116   59  125 1    
   117   60   61 1    
   118   60   62 1    
   119   60  126 1    
   120   61  127 1    
   121   61  128 1    
   122   61  129 1    
   123   62   63 2    
   124   62   64 am   BACKBONE|DICT|INTERRES
   125   64   65 1    
   126   64  130 1    
   127   65   66 1    
   128   65   69 1    
   129   65  131 1    
   130   66   67 am   BACKBONE|DICT|INTERRES
   131   66   68 2    
   132   67  132 1    
   133   67  133 1    
   134   69   70 1    
   135   69  134 1    
   136   69  135 1    
   137   70   71 1    
   138   71  136 1    
   139   71  137 1    
@<TRIPOS>SUBSTRUCTURE
     1 UNK         1 GROUP             0       ****    0 ROOT    
