@<TRIPOS>MOLECULE
3R136
137   139    1
SMALL
USER_CHARGES


@<TRIPOS>ATOM
      1 CA         26.8880   23.0527    0.8932 C.3       0 UNK        -0.1979 
      2 C          27.8985   23.5472   -0.1307 C.2       0 UNK         0.4864 
      3 O          27.9219   23.0358   -1.2502 O.2       0 UNK        -0.5359 
      4 N          28.7271   24.5358    0.2359 N.am      1 UNK        -0.4318 
      5 CA         29.7291   25.1520   -0.6419 C.3       1 UNK         0.0824 
      6 C6         30.7821   25.9569    0.1626 C.3       12 UNK        -0.0944 
      7 S7         32.4515   25.8369   -0.5633 S.3       12 UNK        -0.2672 
      8 C8         33.0162   24.1851   -0.0302 C.3       12 UNK         0.0333 
      9 C9         32.9480   23.9893    1.4783 C.ar      12 UNK        -0.0807 
     10 C10        33.9170   24.5552    2.3136 C.ar      12 UNK        -0.0894 
     11 C11        33.8486   24.3829    3.7020 C.ar      12 UNK        -0.0804 
     12 C12        32.8032   23.6280    4.2447 C.ar      12 UNK        -0.0824 
     13 C13        31.8376   23.0449    3.4189 C.ar      12 UNK        -0.0762 
     14 C14        31.9167   23.2274    2.0365 C.ar      12 UNK        -0.0782 
     15 C15        30.7287   22.1890    4.0162 C.3       12 UNK         0.0230 
     16 S16        29.0909   22.9742    3.8874 S.3       12 UNK        -0.2608 
     17 C17        29.2683   24.4190    4.9869 C.3       12 UNK        -0.0989 
     18 CA         28.8932   25.7347    4.2597 C.3       5 UNK         0.0716 
     19 N          27.4714   25.7656    3.8968 N.am      5 UNK        -0.4135 
     20 C          26.9682   26.3136    2.7872 C.2       4 UNK         0.5031 
     21 O          27.6577   26.8135    1.8923 O.2       4 UNK        -0.5229 
     22 CA         25.4427   26.3163    2.6553 C.3       4 UNK         0.0329 
     23 CB         24.8343   27.5531    3.3386 C.3       4 UNK        -0.2001 
     24 N          25.1250   26.3280    1.2340 N.am      4 UNK        -0.4303 
     25 C          24.0510   25.7942    0.6453 C.2       3 UNK         0.5044 
     26 O          23.1209   25.2820    1.2690 O.2       3 UNK        -0.5152 
     27 CA         24.0218   25.7705   -0.8986 C.3       3 UNK         0.0319 
     28 CB         22.7894   26.5106   -1.4595 C.3       3 UNK        -0.2001 
     29 N          25.2706   26.2138   -1.5443 N.am      3 UNK        -0.4354 
     30 C          25.7738   27.4560   -1.6221 C.2       2 UNK         0.4964 
     31 O          25.2176   28.4582   -1.1758 O.2       2 UNK        -0.5047 
     32 CA         27.1828   27.5565   -2.2174 C.3       2 UNK         0.0288 
     33 CB         27.6755   29.0024   -2.4065 C.3       2 UNK        -0.2113 
     34 N          28.0922   26.8286   -1.3341 N.am      2 UNK        -0.4145 
     35 C          29.0619   26.0012   -1.7419 C.2       1 UNK         0.5006 
     36 O          29.3892   25.8498   -2.9204 O.2       1 UNK        -0.5103 
     37 C          29.2046   26.9857    5.1031 C.2       5 UNK         0.5055 
     38 O          29.5614   26.8727    6.2775 O.2       5 UNK        -0.5220 
     39 N          29.0181   28.1574    4.4890 N.am      6 UNK        -0.4450 
     40 CA         29.1403   29.4935    5.0784 C.3       6 UNK         0.0367 
     41 CB         28.1143   29.7133    6.2094 C.3       6 UNK        -0.1929 
     42 C          28.9502   30.5529    3.9868 C.2       6 UNK         0.5070 
     43 O          29.5885   31.6046    4.0362 O.2       6 UNK        -0.5237 
     44 N          28.0818   30.2523    3.0098 N.am      7 UNK        -0.4739 
     45 CA         27.9537   30.9998    1.7630 C.3       7 UNK         0.0276 
     46 CB         26.6571   30.5724    1.0600 C.3       7 UNK        -0.1927 
     47 C          29.1740   30.7300    0.8692 C.2       7 UNK         0.5013 
     48 O          29.6173   29.5815    0.7835 O.2       7 UNK        -0.5193 
     49 N          29.6858   31.7881    0.2268 N.am      8 UNK        -0.4253 
     50 CA         30.8843   31.8436   -0.6227 C.3       8 UNK         0.0242 
     51 CB         30.7571   30.9366   -1.8636 C.3       8 UNK        -0.2000 
     52 C          32.1975   31.5819    0.1375 C.2       8 UNK         0.4948 
     53 O          33.0726   32.4489    0.1362 O.2       8 UNK        -0.5275 
     54 N          32.3148   30.4103    0.7709 N.am      9 UNK        -0.4246 
     55 CA         33.4595   30.0073    1.5796 C.3       9 UNK         0.0261 
     56 CB         33.7460   28.5174    1.3458 C.3       9 UNK        -0.1959 
     57 C          33.1533   30.2904    3.0541 C.2       9 UNK         0.5033 
     58 O          32.2759   29.6455    3.6326 O.2       9 UNK        -0.5390 
     59 N          33.9023   31.2332    3.6421 N.am      10 UNK        -0.4215 
     60 CA         33.7600   31.6994    5.0281 C.3       10 UNK         0.0240 
     61 CB         34.6905   32.9041    5.2478 C.3       10 UNK        -0.1982 
     62 C          34.0029   30.6264    6.1086 C.2       10 UNK         0.4970 
     63 O          33.6125   30.8383    7.2574 O.2       10 UNK        -0.4916 
     64 N          34.6247   29.5023    5.7307 N.am      11 UNK        -0.4279 
     65 CA         34.7534   28.2888    6.5491 C.3       11 UNK         0.1003 
     66 C          33.4041   27.5793    6.8762 C.2       11 UNK         0.5709 
     67 N          32.3242   27.8520    6.1532 N.am      11 UNK        -0.7358 
     68 O          33.3424   26.7802    7.8074 O.2       11 UNK        -0.4999 
     69 C69        35.7910   27.3116    5.9348 C.3       12 UNK        -0.0954 
     70 S70        35.3145   26.7045    4.2768 S.3       12 UNK        -0.2268 
     71 C71        34.9127   24.9620    4.6305 C.3       12 UNK         0.0203 
     72 H72        26.9788   23.5706    1.8453 H         1 UNK         0.0888 
     73 H73        27.0357   21.9890    1.0778 H         1 UNK         0.0888 
     74 H74        25.8736   23.1958    0.5226 H         1 UNK         0.0888 
     75 H75        28.6317   24.9569    1.1505 H         1 UNK         0.3017 
     76 H76        30.2353   24.3266   -1.1470 H         1 UNK         0.0873 
     77 H77        30.8321   25.6162    1.1961 H         1 UNK         0.0745 
     78 H78        30.5130   27.0127    0.2395 H         1 UNK         0.0745 
     79 H79        32.4267   23.4233   -0.5423 H         1 UNK         0.0705 
     80 H80        34.0446   24.0434   -0.3657 H         1 UNK         0.0705 
     81 H81        34.7215   25.1342    1.8810 H         1 UNK         0.1334 
     82 H82        32.7489   23.4800    5.3148 H         1 UNK         0.1417 
     83 H83        31.1681   22.7796    1.3968 H         1 UNK         0.1562 
     84 H84        30.9331   21.9576    5.0628 H         1 UNK         0.0748 
     85 H85        30.6991   21.2311    3.4949 H         1 UNK         0.0748 
     86 H86        28.6412   24.2669    5.8674 H         1 UNK         0.0940 
     87 H87        30.2939   24.4682    5.3562 H         1 UNK         0.0940 
     88 H88        29.5100   25.8014    3.3605 H         1 UNK         0.0703 
     89 H89        26.8363   25.3968    4.5902 H         1 UNK         0.3081 
     90 H90        25.0475   25.4059    3.1114 H         1 UNK         0.0719 
     91 H91        25.1963   28.4799    2.8924 H         1 UNK         0.0809 
     92 H92        23.7469   27.5507    3.2604 H         1 UNK         0.0809 
     93 H93        25.0816   27.5805    4.4007 H         1 UNK         0.0809 
     94 H94        25.8451   26.7337    0.6538 H         1 UNK         0.2990 
     95 H95        23.9160   24.7195   -1.1717 H         1 UNK         0.0690 
     96 H96        22.7630   26.4711   -2.5484 H         1 UNK         0.0788 
     97 H97        22.7689   27.5584   -1.1591 H         1 UNK         0.0788 
     98 H98        21.8662   26.0566   -1.0971 H         1 UNK         0.0788 
     99 H99        25.8325   25.4661   -1.9295 H         1 UNK         0.2993 
    100 H100       27.1438   27.0799   -3.1997 H         1 UNK         0.0949 
    101 H101       26.9789   29.5793   -3.0158 H         1 UNK         0.0767 
    102 H102       27.7866   29.5183   -1.4541 H         1 UNK         0.0767 
    103 H103       28.6411   29.0207   -2.9112 H         1 UNK         0.0767 
    104 H104       27.9261   26.9174   -0.3378 H         1 UNK         0.3013 
    105 H105       28.8326   28.1376    3.4931 H         1 UNK         0.3121 
    106 H106       30.1491   29.6049    5.4802 H         1 UNK         0.0774 
    107 H107       28.3067   29.0634    7.0626 H         1 UNK         0.0815 
    108 H108       27.0945   29.5289    5.8700 H         1 UNK         0.0815 
    109 H109       28.1559   30.7390    6.5783 H         1 UNK         0.0815 
    110 H110       27.5710   29.3848    3.0554 H         1 UNK         0.2987 
    111 H111       27.8971   32.0658    1.9948 H         1 UNK         0.0949 
    112 H112       25.7811   30.7923    1.6702 H         1 UNK         0.0806 
    113 H113       26.6546   29.5033    0.8438 H         1 UNK         0.0806 
    114 H114       26.5308   31.0969    0.1120 H         1 UNK         0.0806 
    115 H115       29.2469   32.6846    0.3873 H         1 UNK         0.3010 
    116 H116       30.9369   32.8719   -0.9845 H         1 UNK         0.0829 
    117 H117       29.8744   31.1931   -2.4491 H         1 UNK         0.0813 
    118 H118       31.6226   31.0508   -2.5174 H         1 UNK         0.0813 
    119 H119       30.6907   29.8804   -1.6008 H         1 UNK         0.0813 
    120 H120       31.4932   29.8099    0.8018 H         1 UNK         0.3038 
    121 H121       34.3478   30.5653    1.2756 H         1 UNK         0.0769 
    122 H122       32.9248   27.8836    1.6846 H         1 UNK         0.0811 
    123 H123       34.6428   28.2066    1.8798 H         1 UNK         0.0811 
    124 H124       33.9164   28.3117    0.2894 H         1 UNK         0.0811 
    125 H125       34.5976   31.7076    3.0831 H         1 UNK         0.3204 
    126 H126       32.7283   32.0373    5.1490 H         1 UNK         0.0748 
    127 H127       34.4601   33.7160    4.5575 H         1 UNK         0.0771 
    128 H128       34.5838   33.3030    6.2577 H         1 UNK         0.0771 
    129 H129       35.7388   32.6340    5.1136 H         1 UNK         0.0771 
    130 H130       34.8968   29.4056    4.7646 H         1 UNK         0.2980 
    131 H131       35.1548   28.6100    7.5121 H         1 UNK         0.0545 
    132 H132       31.4418   27.4082    6.3806 H         1 UNK         0.3459 
    133 H133       32.3801   28.4825    5.3615 H         1 UNK         0.3459 
    134 H134       36.7536   27.8161    5.8385 H         1 UNK         0.0616 
    135 H135       35.9728   26.4718    6.6074 H         1 UNK         0.0616 
    136 H136       34.5781   24.8795    5.6656 H         1 UNK         0.0634 
    137 H137       35.8221   24.3655    4.5501 H         1 UNK         0.0634 
@<TRIPOS>BOND
     1    1    2 1    
     2    1   72 1    
     3    1   73 1    
     4    1   74 1    
     5    2    3 2    
     6    2    4 am   BACKBONE|DICT|INTERRES
     7    4    5 1    
     8    4   75 1    
     9    5    6 1    
    10    5   35 1    
    11    5   76 1    
    12    6    7 1    
    13    6   77 1    
    14    6   78 1    
    15    7    8 1    
    16    8    9 1    
    17    8   79 1    
    18    8   80 1    
    19    9   10 ar   
    20    9   14 ar   
    21   10   11 ar   
    22   10   81 1    
    23   11   12 ar   
    24   11   71 1    
    25   12   13 ar   
    26   12   82 1    
    27   13   14 ar   
    28   13   15 1    
    29   14   83 1    
    30   15   16 1    
    31   15   84 1    
    32   15   85 1    
    33   16   17 1    
    34   17   18 1    
    35   17   86 1    
    36   17   87 1    
    37   18   19 1    
    38   18   37 1    
    39   18   88 1    
    40   19   20 am   BACKBONE|DICT|INTERRES
    41   19   89 1    
    42   20   21 2    
    43   20   22 1    
    44   22   23 1    
    45   22   24 1    
    46   22   90 1    
    47   23   91 1    
    48   23   92 1    
    49   23   93 1    
    50   24   25 am   BACKBONE|DICT|INTERRES
    51   24   94 1    
    52   25   26 2    
    53   25   27 1    
    54   27   28 1    
    55   27   29 1    
    56   27   95 1    
    57   28   96 1    
    58   28   97 1    
    59   28   98 1    
    60   29   30 am   BACKBONE|DICT|INTERRES
    61   29   99 1    
    62   30   31 2    
    63   30   32 1    
    64   32   33 1    
    65   32   34 1    
    66   32  100 1    
    67   33  101 1    
    68   33  102 1    
    69   33  103 1    
    70   34   35 am   BACKBONE|DICT|INTERRES
    71   34  104 1    
    72   35   36 2    
    73   37   38 2    
    74   37   39 am   BACKBONE|DICT|INTERRES
    75   39   40 1    
    76   39  105 1    
    77   40   41 1    
    78   40   42 1    
    79   40  106 1    
    80   41  107 1    
    81   41  108 1    
    82   41  109 1    
    83   42   43 2    
    84   42   44 am   BACKBONE|DICT|INTERRES
    85   44   45 1    
    86   44  110 1    
    87   45   46 1    
    88   45   47 1    
    89   45  111 1    
    90   46  112 1    
    91   46  113 1    
    92   46  114 1    
    93   47   48 2    
    94   47   49 am   BACKBONE|DICT|INTERRES
    95   49   50 1    
    96   49  115 1    
    97   50   51 1    
    98   50   52 1    
    99   50  116 1    
   100   51  117 1    
   101   51  118 1    
   102   51  119 1    
   103   52   53 2    
   104   52   54 am   BACKBONE|DICT|INTERRES
   105   54   55 1    
   106   54  120 1    
   107   55   56 1    
   108   55   57 1    
   109   55  121 1    
   110   56  122 1    
   111   56  123 1    
   112   56  124 1    
   113   57   58 2    
   114   57   59 am   BACKBONE|DICT|INTERRES
   115   59   60 1    
   116   59  125 1    
   117   60   61 1    
   118   60   62 1    
   119   60  126 1    
   120   61  127 1    
   121   61  128 1    
   122   61  129 1    
   123   62   63 2    
   124   62   64 am   BACKBONE|DICT|INTERRES
   125   64   65 1    
   126   64  130 1    
   127   65   66 1    
   128   65   69 1    
   129   65  131 1    
   130   66   67 am   BACKBONE|DICT|INTERRES
   131   66   68 2    
   132   67  132 1    
   133   67  133 1    
   134   69   70 1    
   135   69  134 1    
   136   69  135 1    
   137   70   71 1    
   138   71  136 1    
   139   71  137 1    
@<TRIPOS>SUBSTRUCTURE
     1 UNK         1 GROUP             0       ****    0 ROOT    
