@<TRIPOS>MOLECULE
3R136
137   139    1
SMALL
USER_CHARGES


@<TRIPOS>ATOM
      1 CA         30.6140   21.8602    4.1703 C.3       0 UNK        -0.1979 
      2 C          30.1309   20.4127    4.1027 C.2       0 UNK         0.4864 
      3 O          30.1387   19.7359    5.1301 O.2       0 UNK        -0.5359 
      4 N          29.7174   19.8756    2.9439 N.am      1 UNK        -0.4318 
      5 CA         29.5736   20.5062    1.6245 C.3       1 UNK         0.0824 
      6 C6         30.9140   21.0473    1.0489 C.3       12 UNK        -0.0944 
      7 S7         30.9722   21.0282   -0.7783 S.3       12 UNK        -0.2672 
      8 C8         32.5501   21.8743   -1.1174 C.3       12 UNK         0.0333 
      9 C9         32.5249   23.3300   -0.6733 C.ar      12 UNK        -0.0807 
     10 C10        33.0188   23.6804    0.5858 C.ar      12 UNK        -0.0894 
     11 C11        32.9574   25.0025    1.0277 C.ar      12 UNK        -0.0804 
     12 C12        32.4510   25.9908    0.1805 C.ar      12 UNK        -0.0824 
     13 C13        31.9645   25.6581   -1.0871 C.ar      12 UNK        -0.0762 
     14 C14        31.9987   24.3229   -1.5074 C.ar      12 UNK        -0.0782 
     15 C15        31.4036   26.7412   -1.9989 C.3       12 UNK         0.0230 
     16 S16        29.6734   27.1469   -1.5962 S.3       12 UNK        -0.2608 
     17 C17        29.8665   28.2290   -0.1384 C.3       12 UNK        -0.0989 
     18 CA         28.6525   29.1755    0.0352 C.3       5 UNK         0.0716 
     19 N          27.4330   28.4431    0.3914 N.am      5 UNK        -0.4135 
     20 C          26.1812   28.9179    0.2884 C.2       4 UNK         0.5031 
     21 O          25.9171   30.0228   -0.1908 O.2       4 UNK        -0.5229 
     22 CA         25.0171   28.0386    0.7896 C.3       4 UNK         0.0329 
     23 CB         24.1890   27.5204   -0.3980 C.3       4 UNK        -0.2001 
     24 N          25.4319   26.8976    1.6068 N.am      4 UNK        -0.4303 
     25 C          25.9881   26.9616    2.8256 C.2       3 UNK         0.5044 
     26 O          26.1266   28.0092    3.4542 O.2       3 UNK        -0.5152 
     27 CA         26.5072   25.6388    3.4290 C.3       3 UNK         0.0319 
     28 CB         25.5803   25.1565    4.5557 C.3       3 UNK        -0.2001 
     29 N          26.6675   24.5632    2.4397 N.am      3 UNK        -0.4354 
     30 C          27.5395   24.5921    1.4223 C.2       2 UNK         0.4964 
     31 O          28.3599   25.4953    1.2603 O.2       2 UNK        -0.5047 
     32 CA         27.4258   23.4632    0.3854 C.3       2 UNK         0.0288 
     33 CB         27.5762   23.9979   -1.0497 C.3       2 UNK        -0.2113 
     34 N          28.4298   22.4299    0.6085 N.am      2 UNK        -0.4145 
     35 C          28.4031   21.5185    1.5869 C.2       1 UNK         0.5006 
     36 O          27.4922   21.4419    2.4161 O.2       1 UNK        -0.5103 
     37 C          28.9342   30.3130    1.0422 C.2       5 UNK         0.5055 
     38 O          29.8739   30.2329    1.8387 O.2       5 UNK        -0.5220 
     39 N          28.1268   31.3794    0.9673 N.am      6 UNK        -0.4450 
     40 CA         28.2664   32.6187    1.7385 C.3       6 UNK         0.0367 
     41 CB         27.0644   33.5328    1.4578 C.3       6 UNK        -0.1929 
     42 C          29.5861   33.3613    1.4633 C.2       6 UNK         0.5070 
     43 O          30.1029   34.0226    2.3620 O.2       6 UNK        -0.5237 
     44 N          30.1499   33.1828    0.2592 N.am      7 UNK        -0.4739 
     45 CA         31.4843   33.6579   -0.1261 C.3       7 UNK         0.0276 
     46 CB         31.6874   33.4215   -1.6312 C.3       7 UNK        -0.1927 
     47 C          32.6281   33.0082    0.6792 C.2       7 UNK         0.5013 
     48 O          33.6870   33.6204    0.8183 O.2       7 UNK        -0.5193 
     49 N          32.3851   31.8030    1.2135 N.am      8 UNK        -0.4253 
     50 CA         33.2676   31.0891    2.1379 C.3       8 UNK         0.0242 
     51 CB         33.3268   29.6082    1.7169 C.3       8 UNK        -0.2000 
     52 C          32.7879   31.2228    3.5964 C.2       8 UNK         0.4948 
     53 O          33.2876   30.4936    4.4534 O.2       8 UNK        -0.5275 
     54 N          31.8024   32.0987    3.8568 N.am      9 UNK        -0.4246 
     55 CA         31.1173   32.3156    5.1373 C.3       9 UNK         0.0261 
     56 CB         32.0736   32.9671    6.1593 C.3       9 UNK        -0.1959 
     57 C          30.4317   31.0451    5.6812 C.2       9 UNK         0.5033 
     58 O          30.4275   30.8322    6.8949 O.2       9 UNK        -0.5390 
     59 N          29.8877   30.2174    4.7718 N.am      10 UNK        -0.4215 
     60 CA         29.3335   28.8797    5.0232 C.3       10 UNK         0.0240 
     61 CB         28.0742   28.9480    5.9142 C.3       10 UNK        -0.1982 
     62 C          30.4023   27.9002    5.5507 C.2       10 UNK         0.4970 
     63 O          30.1256   27.1097    6.4547 O.2       10 UNK        -0.4916 
     64 N          31.6032   27.9866    4.9633 N.am      11 UNK        -0.4279 
     65 CA         32.8145   27.2283    5.3096 C.3       11 UNK         0.1003 
     66 C          33.4111   27.6667    6.6759 C.2       11 UNK         0.5709 
     67 N          33.6241   28.9613    6.8712 N.am      11 UNK        -0.7358 
     68 O          33.6901   26.8516    7.5529 O.2       11 UNK        -0.4999 
     69 C69        32.6731   25.6863    5.1493 C.3       12 UNK        -0.0954 
     70 S70        31.9503   25.1912    3.5525 S.3       12 UNK        -0.2268 
     71 C71        33.3795   25.3489    2.4430 C.3       12 UNK         0.0203 
     72 H72        31.6171   21.9476    3.7545 H         1 UNK         0.0888 
     73 H73        29.9531   22.5454    3.6432 H         1 UNK         0.0888 
     74 H74        30.6596   22.1957    5.2062 H         1 UNK         0.0888 
     75 H75        29.3895   18.9203    2.9738 H         1 UNK         0.3017 
     76 H76        29.2512   19.6872    0.9795 H         1 UNK         0.0873 
     77 H77        31.1015   22.0561    1.4141 H         1 UNK         0.0745 
     78 H78        31.7481   20.4371    1.3995 H         1 UNK         0.0745 
     79 H79        33.3617   21.3367   -0.6243 H         1 UNK         0.0705 
     80 H80        32.7564   21.8205   -2.1874 H         1 UNK         0.0705 
     81 H81        33.4106   22.9154    1.2424 H         1 UNK         0.1334 
     82 H82        32.4086   27.0149    0.5210 H         1 UNK         0.1417 
     83 H83        31.6107   24.0544   -2.4808 H         1 UNK         0.1562 
     84 H84        31.4468   26.4101   -3.0376 H         1 UNK         0.0748 
     85 H85        32.0219   27.6384   -1.9455 H         1 UNK         0.0748 
     86 H86        30.7827   28.8085   -0.2661 H         1 UNK         0.0940 
     87 H87        30.0105   27.6135    0.7519 H         1 UNK         0.0940 
     88 H88        28.4809   29.6580   -0.9298 H         1 UNK         0.0703 
     89 H89        27.5777   27.5156    0.7721 H         1 UNK         0.3081 
     90 H90        24.3768   28.6746    1.4044 H         1 UNK         0.0719 
     91 H91        24.7763   26.8687   -1.0464 H         1 UNK         0.0809 
     92 H92        23.3151   26.9625   -0.0609 H         1 UNK         0.0809 
     93 H93        23.8249   28.3462   -1.0111 H         1 UNK         0.0809 
     94 H94        25.3440   25.9868    1.1820 H         1 UNK         0.2990 
     95 H95        27.4896   25.8460    3.8595 H         1 UNK         0.0690 
     96 H96        25.9784   24.2664    5.0434 H         1 UNK         0.0788 
     97 H97        24.5820   24.9205    4.1850 H         1 UNK         0.0788 
     98 H98        25.4702   25.9227    5.3247 H         1 UNK         0.0788 
     99 H99        26.0549   23.7642    2.5328 H         1 UNK         0.2993 
    100 H100       26.4349   23.0109    0.4684 H         1 UNK         0.0949 
    101 H101       26.8807   24.8163   -1.2411 H         1 UNK         0.0767 
    102 H102       28.5828   24.3758   -1.2340 H         1 UNK         0.0767 
    103 H103       27.3736   23.2197   -1.7857 H         1 UNK         0.0767 
    104 H104       29.2247   22.4277   -0.0182 H         1 UNK         0.3013 
    105 H105       27.3241   31.3071    0.3480 H         1 UNK         0.3121 
    106 H106       28.2555   32.3518    2.7974 H         1 UNK         0.0774 
    107 H107       27.1288   34.4525    2.0412 H         1 UNK         0.0815 
    108 H108       27.0088   33.8165    0.4061 H         1 UNK         0.0815 
    109 H109       26.1257   33.0467    1.7246 H         1 UNK         0.0815 
    110 H110       29.6451   32.6389   -0.4256 H         1 UNK         0.2987 
    111 H111       31.5245   34.7330    0.0636 H         1 UNK         0.0949 
    112 H112       31.6396   32.3616   -1.8848 H         1 UNK         0.0806 
    113 H113       30.9339   33.9438   -2.2211 H         1 UNK         0.0806 
    114 H114       32.6617   33.7900   -1.9558 H         1 UNK         0.0806 
    115 H115       31.4708   31.3876    1.0785 H         1 UNK         0.3010 
    116 H116       34.2781   31.4999    2.0908 H         1 UNK         0.0829 
    117 H117       33.6376   29.5031    0.6774 H         1 UNK         0.0813 
    118 H118       34.0456   29.0562    2.3238 H         1 UNK         0.0813 
    119 H119       32.3599   29.1172    1.8303 H         1 UNK         0.0813 
    120 H120       31.4560   32.6720    3.0950 H         1 UNK         0.3038 
    121 H121       30.3148   33.0273    4.9388 H         1 UNK         0.0769 
    122 H122       32.8737   32.2880    6.4553 H         1 UNK         0.0811 
    123 H123       31.5405   33.2553    7.0662 H         1 UNK         0.0811 
    124 H124       32.5315   33.8694    5.7543 H         1 UNK         0.0811 
    125 H125       29.9559   30.4675    3.7883 H         1 UNK         0.3204 
    126 H126       29.0228   28.4931    4.0509 H         1 UNK         0.0748 
    127 H127       27.5889   27.9730    5.9733 H         1 UNK         0.0771 
    128 H128       28.3080   29.2560    6.9334 H         1 UNK         0.0771 
    129 H129       27.3418   29.6463    5.5094 H         1 UNK         0.0771 
    130 H130       31.7477   28.7231    4.2890 H         1 UNK         0.2980 
    131 H131       33.5598   27.5422    4.5786 H         1 UNK         0.0545 
    132 H132       33.4406   29.6206    6.1187 H         1 UNK         0.3459 
    133 H133       34.0067   29.2799    7.7463 H         1 UNK         0.3459 
    134 H134       33.6441   25.2005    5.2588 H         1 UNK         0.0616 
    135 H135       32.0407   25.2771    5.9385 H         1 UNK         0.0616 
    136 H136       34.1809   24.6883    2.7774 H         1 UNK         0.0634 
    137 H137       33.7697   26.3667    2.4814 H         1 UNK         0.0634 
@<TRIPOS>BOND
     1    1    2 1    
     2    1   72 1    
     3    1   73 1    
     4    1   74 1    
     5    2    3 2    
     6    2    4 am   BACKBONE|DICT|INTERRES
     7    4    5 1    
     8    4   75 1    
     9    5    6 1    
    10    5   35 1    
    11    5   76 1    
    12    6    7 1    
    13    6   77 1    
    14    6   78 1    
    15    7    8 1    
    16    8    9 1    
    17    8   79 1    
    18    8   80 1    
    19    9   10 ar   
    20    9   14 ar   
    21   10   11 ar   
    22   10   81 1    
    23   11   12 ar   
    24   11   71 1    
    25   12   13 ar   
    26   12   82 1    
    27   13   14 ar   
    28   13   15 1    
    29   14   83 1    
    30   15   16 1    
    31   15   84 1    
    32   15   85 1    
    33   16   17 1    
    34   17   18 1    
    35   17   86 1    
    36   17   87 1    
    37   18   19 1    
    38   18   37 1    
    39   18   88 1    
    40   19   20 am   BACKBONE|DICT|INTERRES
    41   19   89 1    
    42   20   21 2    
    43   20   22 1    
    44   22   23 1    
    45   22   24 1    
    46   22   90 1    
    47   23   91 1    
    48   23   92 1    
    49   23   93 1    
    50   24   25 am   BACKBONE|DICT|INTERRES
    51   24   94 1    
    52   25   26 2    
    53   25   27 1    
    54   27   28 1    
    55   27   29 1    
    56   27   95 1    
    57   28   96 1    
    58   28   97 1    
    59   28   98 1    
    60   29   30 am   BACKBONE|DICT|INTERRES
    61   29   99 1    
    62   30   31 2    
    63   30   32 1    
    64   32   33 1    
    65   32   34 1    
    66   32  100 1    
    67   33  101 1    
    68   33  102 1    
    69   33  103 1    
    70   34   35 am   BACKBONE|DICT|INTERRES
    71   34  104 1    
    72   35   36 2    
    73   37   38 2    
    74   37   39 am   BACKBONE|DICT|INTERRES
    75   39   40 1    
    76   39  105 1    
    77   40   41 1    
    78   40   42 1    
    79   40  106 1    
    80   41  107 1    
    81   41  108 1    
    82   41  109 1    
    83   42   43 2    
    84   42   44 am   BACKBONE|DICT|INTERRES
    85   44   45 1    
    86   44  110 1    
    87   45   46 1    
    88   45   47 1    
    89   45  111 1    
    90   46  112 1    
    91   46  113 1    
    92   46  114 1    
    93   47   48 2    
    94   47   49 am   BACKBONE|DICT|INTERRES
    95   49   50 1    
    96   49  115 1    
    97   50   51 1    
    98   50   52 1    
    99   50  116 1    
   100   51  117 1    
   101   51  118 1    
   102   51  119 1    
   103   52   53 2    
   104   52   54 am   BACKBONE|DICT|INTERRES
   105   54   55 1    
   106   54  120 1    
   107   55   56 1    
   108   55   57 1    
   109   55  121 1    
   110   56  122 1    
   111   56  123 1    
   112   56  124 1    
   113   57   58 2    
   114   57   59 am   BACKBONE|DICT|INTERRES
   115   59   60 1    
   116   59  125 1    
   117   60   61 1    
   118   60   62 1    
   119   60  126 1    
   120   61  127 1    
   121   61  128 1    
   122   61  129 1    
   123   62   63 2    
   124   62   64 am   BACKBONE|DICT|INTERRES
   125   64   65 1    
   126   64  130 1    
   127   65   66 1    
   128   65   69 1    
   129   65  131 1    
   130   66   67 am   BACKBONE|DICT|INTERRES
   131   66   68 2    
   132   67  132 1    
   133   67  133 1    
   134   69   70 1    
   135   69  134 1    
   136   69  135 1    
   137   70   71 1    
   138   71  136 1    
   139   71  137 1    
@<TRIPOS>SUBSTRUCTURE
     1 UNK         1 GROUP             0       ****    0 ROOT    
