@<TRIPOS>MOLECULE
3R136
137   139    1
SMALL
USER_CHARGES


@<TRIPOS>ATOM
      1 CA         28.9176   23.9975    3.9422 C.3       0 UNK        -0.1979 
      2 C          28.3248   22.7059    3.4039 C.2       0 UNK         0.4864 
      3 O          27.3038   22.2374    3.9108 O.2       0 UNK        -0.5359 
      4 N          28.9524   22.1288    2.3710 N.am      1 UNK        -0.4318 
      5 CA         28.5865   20.8586    1.7264 C.3       1 UNK         0.0824 
      6 C6         29.7762   20.2267    0.9487 C.3       12 UNK        -0.0944 
      7 S7         31.3102   20.0662    1.9301 S.3       12 UNK        -0.2672 
      8 C8         32.4494   21.1883    1.0509 C.3       12 UNK         0.0333 
      9 C9         32.1334   22.6483    1.3406 C.ar      12 UNK        -0.0807 
     10 C10        32.7192   23.2915    2.4346 C.ar      12 UNK        -0.0894 
     11 C11        32.4077   24.6232    2.7271 C.ar      12 UNK        -0.0804 
     12 C12        31.4878   25.3084    1.9265 C.ar      12 UNK        -0.0824 
     13 C13        30.8853   24.6668    0.8396 C.ar      12 UNK        -0.0762 
     14 C14        31.2378   23.3512    0.5311 C.ar      12 UNK        -0.0782 
     15 C15        29.7958   25.3526    0.0350 C.3       12 UNK         0.0230 
     16 S16        30.4215   26.0461   -1.5233 S.3       12 UNK        -0.2608 
     17 C17        30.8131   27.7534   -1.0179 C.3       12 UNK        -0.0989 
     18 CA         29.7589   28.7683   -1.5286 C.3       5 UNK         0.0716 
     19 N          28.4007   28.4622   -1.0519 N.am      5 UNK        -0.4135 
     20 C          27.2783   28.9984   -1.5485 C.2       4 UNK         0.5031 
     21 O          27.2579   29.7972   -2.4870 O.2       4 UNK        -0.5229 
     22 CA         25.9614   28.5333   -0.9054 C.3       4 UNK         0.0329 
     23 CB         24.7760   29.4506   -1.2611 C.3       4 UNK        -0.2001 
     24 N          25.6529   27.1694   -1.3349 N.am      4 UNK        -0.4303 
     25 C          26.0383   26.0607   -0.6940 C.2       3 UNK         0.5044 
     26 O          26.6859   26.0621    0.3560 O.2       3 UNK        -0.5152 
     27 CA         25.6548   24.7295   -1.3482 C.3       3 UNK         0.0319 
     28 CB         26.6576   24.3390   -2.4500 C.3       3 UNK        -0.2001 
     29 N          25.6046   23.6906   -0.3220 N.am      3 UNK        -0.4354 
     30 C          24.8531   22.5847   -0.3819 C.2       2 UNK         0.4964 
     31 O          24.1451   22.2983   -1.3500 O.2       2 UNK        -0.5047 
     32 CA         24.8836   21.6553    0.8504 C.3       2 UNK         0.0288 
     33 CB         24.2283   20.2824    0.5838 C.3       2 UNK        -0.2113 
     34 N          26.2214   21.4780    1.4310 N.am      2 UNK        -0.4145 
     35 C          27.3213   20.9886    0.8394 C.2       1 UNK         0.5006 
     36 O          27.3633   20.6501   -0.3454 O.2       1 UNK        -0.5103 
     37 C          30.1983   30.2081   -1.1864 C.2       5 UNK         0.5055 
     38 O          31.0211   30.7764   -1.9063 O.2       5 UNK        -0.5220 
     39 N          29.6487   30.7680   -0.1035 N.am      6 UNK        -0.4450 
     40 CA         29.8753   32.1224    0.3831 C.3       6 UNK         0.0367 
     41 CB         31.2185   32.1948    1.1349 C.3       6 UNK        -0.1929 
     42 C          28.6987   32.5020    1.2910 C.2       6 UNK         0.5070 
     43 O          27.9164   31.6303    1.6807 O.2       6 UNK        -0.5237 
     44 N          28.6022   33.7943    1.6244 N.am      7 UNK        -0.4739 
     45 CA         27.5750   34.3564    2.5115 C.3       7 UNK         0.0276 
     46 CB         27.4404   35.8604    2.2162 C.3       7 UNK        -0.1927 
     47 C          27.8479   34.1215    4.0121 C.2       7 UNK         0.5013 
     48 O          26.9963   34.4574    4.8366 O.2       7 UNK        -0.5193 
     49 N          29.0203   33.5721    4.3442 N.am      8 UNK        -0.4253 
     50 CA         29.4749   33.2413    5.6906 C.3       8 UNK         0.0242 
     51 CB         30.2885   34.4212    6.2546 C.3       8 UNK        -0.2000 
     52 C          30.3171   31.9611    5.6182 C.2       8 UNK         0.4948 
     53 O          30.6157   31.4830    4.5191 O.2       8 UNK        -0.5275 
     54 N          30.7083   31.4332    6.7852 N.am      9 UNK        -0.4246 
     55 CA         31.5426   30.2367    6.9428 C.3       9 UNK         0.0261 
     56 CB         31.4183   29.7282    8.3914 C.3       9 UNK        -0.1959 
     57 C          33.0093   30.4812    6.5299 C.2       9 UNK         0.5033 
     58 O          33.9084   30.4413    7.3726 O.2       9 UNK        -0.5390 
     59 N          33.2220   30.7259    5.2303 N.am      10 UNK        -0.4215 
     60 CA         34.5096   31.0287    4.5935 C.3       10 UNK         0.0240 
     61 CB         34.2724   31.3269    3.1040 C.3       10 UNK        -0.1982 
     62 C          35.5903   29.9439    4.7622 C.2       10 UNK         0.4970 
     63 O          36.7765   30.2646    4.6754 O.2       10 UNK        -0.4916 
     64 N          35.1718   28.6979    5.0182 N.am      11 UNK        -0.4279 
     65 CA         36.0496   27.5802    5.3948 C.3       11 UNK         0.1003 
     66 C          36.6959   27.7187    6.8066 C.2       11 UNK         0.5709 
     67 N          36.2304   28.6076    7.6782 N.am      11 UNK        -0.7358 
     68 O          37.6471   27.0042    7.1145 O.2       11 UNK        -0.4999 
     69 C69        35.3310   26.2126    5.2608 C.3       12 UNK        -0.0954 
     70 S70        34.7172   25.8804    3.5749 S.3       12 UNK        -0.2268 
     71 C71        33.0342   25.2966    3.9379 C.3       12 UNK         0.0203 
     72 H72        28.7709   24.8092    3.2301 H         1 UNK         0.0888 
     73 H73        28.4415   24.2787    4.8812 H         1 UNK         0.0888 
     74 H74        29.9845   23.8821    4.1290 H         1 UNK         0.0888 
     75 H75        29.7954   22.5587    2.0133 H         1 UNK         0.3017 
     76 H76        28.3240   20.1583    2.5225 H         1 UNK         0.0873 
     77 H77        29.5044   19.2227    0.6171 H         1 UNK         0.0745 
     78 H78        29.9851   20.7839    0.0356 H         1 UNK         0.0745 
     79 H79        33.4706   20.9645    1.3635 H         1 UNK         0.0705 
     80 H80        32.4129   20.9909   -0.0217 H         1 UNK         0.0705 
     81 H81        33.4134   22.7529    3.0657 H         1 UNK         0.1334 
     82 H82        31.2206   26.3282    2.1676 H         1 UNK         0.1417 
     83 H83        30.7819   22.8670   -0.3217 H         1 UNK         0.1562 
     84 H84        29.3148   26.1277    0.6321 H         1 UNK         0.0748 
     85 H85        29.0141   24.6274   -0.1926 H         1 UNK         0.0748 
     86 H86        31.7967   27.9931   -1.4273 H         1 UNK         0.0940 
     87 H87        30.9219   27.8103    0.0667 H         1 UNK         0.0940 
     88 H88        29.7385   28.7021   -2.6189 H         1 UNK         0.0703 
     89 H89        28.3177   27.7723   -0.3186 H         1 UNK         0.3081 
     90 H90        26.0881   28.5661    0.1793 H         1 UNK         0.0719 
     91 H91        24.5724   29.4582   -2.3328 H         1 UNK         0.0809 
     92 H92        23.8658   29.1361   -0.7502 H         1 UNK         0.0809 
     93 H93        24.9765   30.4797   -0.9594 H         1 UNK         0.0809 
     94 H94        25.1616   27.0781   -2.2132 H         1 UNK         0.2990 
     95 H95        24.6618   24.8465   -1.7882 H         1 UNK         0.0690 
     96 H96        26.3504   23.4243   -2.9572 H         1 UNK         0.0788 
     97 H97        27.6574   24.1742   -2.0490 H         1 UNK         0.0788 
     98 H98        26.7349   25.1183   -3.2092 H         1 UNK         0.0788 
     99 H99        26.1299   23.9025    0.5171 H         1 UNK         0.2993 
    100 H100       24.2872   22.1577    1.6135 H         1 UNK         0.0949 
    101 H101       23.1888   20.3970    0.2737 H         1 UNK         0.0767 
    102 H102       24.7449   19.7345   -0.2050 H         1 UNK         0.0767 
    103 H103       24.2298   19.6616    1.4798 H         1 UNK         0.0767 
    104 H104       26.3272   21.7562    2.4056 H         1 UNK         0.3013 
    105 H105       28.9378   30.2685    0.4177 H         1 UNK         0.3121 
    106 H106       29.8874   32.8106   -0.4648 H         1 UNK         0.0774 
    107 H107       31.3885   33.1845    1.5599 H         1 UNK         0.0815 
    108 H108       31.2563   31.4746    1.9523 H         1 UNK         0.0815 
    109 H109       32.0570   31.9844    0.4711 H         1 UNK         0.0815 
    110 H110       29.2873   34.4436    1.2628 H         1 UNK         0.2987 
    111 H111       26.6192   33.8785    2.2842 H         1 UNK         0.0949 
    112 H112       28.3636   36.3990    2.4340 H         1 UNK         0.0806 
    113 H113       27.1839   36.0392    1.1718 H         1 UNK         0.0806 
    114 H114       26.6515   36.3099    2.8210 H         1 UNK         0.0806 
    115 H115       29.6228   33.2310    3.6067 H         1 UNK         0.3010 
    116 H116       28.6148   33.0423    6.3338 H         1 UNK         0.0829 
    117 H117       29.6940   35.3348    6.2783 H         1 UNK         0.0813 
    118 H118       30.6175   34.2279    7.2762 H         1 UNK         0.0813 
    119 H119       31.1785   34.6186    5.6555 H         1 UNK         0.0813 
    120 H120       30.4447   31.9052    7.6384 H         1 UNK         0.3038 
    121 H121       31.1497   29.4571    6.2863 H         1 UNK         0.0769 
    122 H122       32.0067   28.8214    8.5389 H         1 UNK         0.0811 
    123 H123       30.3852   29.4847    8.6401 H         1 UNK         0.0811 
    124 H124       31.7728   30.4666    9.1117 H         1 UNK         0.0811 
    125 H125       32.3906   30.8150    4.6498 H         1 UNK         0.3204 
    126 H126       34.8952   31.9345    5.0656 H         1 UNK         0.0748 
    127 H127       35.2081   31.5682    2.5974 H         1 UNK         0.0771 
    128 H128       33.8309   30.4740    2.5868 H         1 UNK         0.0771 
    129 H129       33.6079   32.1812    2.9739 H         1 UNK         0.0771 
    130 H130       34.1806   28.5202    5.0584 H         1 UNK         0.2980 
    131 H131       36.8821   27.5785    4.6885 H         1 UNK         0.0545 
    132 H132       36.6680   28.6799    8.5826 H         1 UNK         0.3459 
    133 H133       35.4450   29.2103    7.4526 H         1 UNK         0.3459 
    134 H134       36.0087   25.3971    5.5203 H         1 UNK         0.0616 
    135 H135       34.5042   26.1566    5.9714 H         1 UNK         0.0616 
    136 H136       33.0655   24.5869    4.7662 H         1 UNK         0.0634 
    137 H137       32.4248   26.1375    4.2726 H         1 UNK         0.0634 
@<TRIPOS>BOND
     1    1    2 1    
     2    1   72 1    
     3    1   73 1    
     4    1   74 1    
     5    2    3 2    
     6    2    4 am   BACKBONE|DICT|INTERRES
     7    4    5 1    
     8    4   75 1    
     9    5    6 1    
    10    5   35 1    
    11    5   76 1    
    12    6    7 1    
    13    6   77 1    
    14    6   78 1    
    15    7    8 1    
    16    8    9 1    
    17    8   79 1    
    18    8   80 1    
    19    9   10 ar   
    20    9   14 ar   
    21   10   11 ar   
    22   10   81 1    
    23   11   12 ar   
    24   11   71 1    
    25   12   13 ar   
    26   12   82 1    
    27   13   14 ar   
    28   13   15 1    
    29   14   83 1    
    30   15   16 1    
    31   15   84 1    
    32   15   85 1    
    33   16   17 1    
    34   17   18 1    
    35   17   86 1    
    36   17   87 1    
    37   18   19 1    
    38   18   37 1    
    39   18   88 1    
    40   19   20 am   BACKBONE|DICT|INTERRES
    41   19   89 1    
    42   20   21 2    
    43   20   22 1    
    44   22   23 1    
    45   22   24 1    
    46   22   90 1    
    47   23   91 1    
    48   23   92 1    
    49   23   93 1    
    50   24   25 am   BACKBONE|DICT|INTERRES
    51   24   94 1    
    52   25   26 2    
    53   25   27 1    
    54   27   28 1    
    55   27   29 1    
    56   27   95 1    
    57   28   96 1    
    58   28   97 1    
    59   28   98 1    
    60   29   30 am   BACKBONE|DICT|INTERRES
    61   29   99 1    
    62   30   31 2    
    63   30   32 1    
    64   32   33 1    
    65   32   34 1    
    66   32  100 1    
    67   33  101 1    
    68   33  102 1    
    69   33  103 1    
    70   34   35 am   BACKBONE|DICT|INTERRES
    71   34  104 1    
    72   35   36 2    
    73   37   38 2    
    74   37   39 am   BACKBONE|DICT|INTERRES
    75   39   40 1    
    76   39  105 1    
    77   40   41 1    
    78   40   42 1    
    79   40  106 1    
    80   41  107 1    
    81   41  108 1    
    82   41  109 1    
    83   42   43 2    
    84   42   44 am   BACKBONE|DICT|INTERRES
    85   44   45 1    
    86   44  110 1    
    87   45   46 1    
    88   45   47 1    
    89   45  111 1    
    90   46  112 1    
    91   46  113 1    
    92   46  114 1    
    93   47   48 2    
    94   47   49 am   BACKBONE|DICT|INTERRES
    95   49   50 1    
    96   49  115 1    
    97   50   51 1    
    98   50   52 1    
    99   50  116 1    
   100   51  117 1    
   101   51  118 1    
   102   51  119 1    
   103   52   53 2    
   104   52   54 am   BACKBONE|DICT|INTERRES
   105   54   55 1    
   106   54  120 1    
   107   55   56 1    
   108   55   57 1    
   109   55  121 1    
   110   56  122 1    
   111   56  123 1    
   112   56  124 1    
   113   57   58 2    
   114   57   59 am   BACKBONE|DICT|INTERRES
   115   59   60 1    
   116   59  125 1    
   117   60   61 1    
   118   60   62 1    
   119   60  126 1    
   120   61  127 1    
   121   61  128 1    
   122   61  129 1    
   123   62   63 2    
   124   62   64 am   BACKBONE|DICT|INTERRES
   125   64   65 1    
   126   64  130 1    
   127   65   66 1    
   128   65   69 1    
   129   65  131 1    
   130   66   67 am   BACKBONE|DICT|INTERRES
   131   66   68 2    
   132   67  132 1    
   133   67  133 1    
   134   69   70 1    
   135   69  134 1    
   136   69  135 1    
   137   70   71 1    
   138   71  136 1    
   139   71  137 1    
@<TRIPOS>SUBSTRUCTURE
     1 UNK         1 GROUP             0       ****    0 ROOT    
