@<TRIPOS>MOLECULE
3R136
137   139    1
SMALL
USER_CHARGES


@<TRIPOS>ATOM
      1 CA         30.5303   18.6130    3.3923 C.3       0 UNK        -0.1979 
      2 C          29.5250   18.6931    2.2527 C.2       0 UNK         0.4864 
      3 O          28.8556   17.7016    1.9565 O.2       0 UNK        -0.5359 
      4 N          29.4220   19.8617    1.6081 N.am      1 UNK        -0.4318 
      5 CA         28.4574   20.1518    0.5432 C.3       1 UNK         0.0824 
      6 C6         28.9656   21.2806   -0.3910 C.3       12 UNK        -0.0944 
      7 S7         29.3037   22.8691    0.4462 S.3       12 UNK        -0.2672 
      8 C8         31.0964   23.0412    0.2042 C.3       12 UNK         0.0333 
      9 C9         31.5571   24.4593    0.5047 C.ar      12 UNK        -0.0807 
     10 C10        31.7071   24.8879    1.8263 C.ar      12 UNK        -0.0894 
     11 C11        32.1592   26.1809    2.1055 C.ar      12 UNK        -0.0804 
     12 C12        32.4609   27.0513    1.0522 C.ar      12 UNK        -0.0824 
     13 C13        32.3165   26.6314   -0.2747 C.ar      12 UNK        -0.0762 
     14 C14        31.8570   25.3379   -0.5406 C.ar      12 UNK        -0.0782 
     15 C15        32.7038   27.5457   -1.4292 C.3       12 UNK         0.0230 
     16 S16        31.2525   28.2700   -2.2578 S.3       12 UNK        -0.2608 
     17 C17        30.8130   29.6266   -1.1218 C.3       12 UNK        -0.0989 
     18 CA         29.3912   29.4763   -0.5272 C.3       5 UNK         0.0716 
     19 N          29.2339   28.2247    0.2171 N.am      5 UNK        -0.4135 
     20 C          28.0865   27.7808    0.7445 C.2       4 UNK         0.5031 
     21 O          26.9963   28.3418    0.6012 O.2       4 UNK        -0.5229 
     22 CA         28.1953   26.5258    1.6250 C.3       4 UNK         0.0329 
     23 CB         28.6653   26.9139    3.0377 C.3       4 UNK        -0.2001 
     24 N          26.9256   25.8041    1.7332 N.am      4 UNK        -0.4303 
     25 C          26.3355   25.1354    0.7352 C.2       3 UNK         0.5044 
     26 O          26.7986   25.0241   -0.4024 O.2       3 UNK        -0.5152 
     27 CA         24.9973   24.4678    1.0618 C.3       3 UNK         0.0319 
     28 CB         23.8257   25.1983    0.3796 C.3       3 UNK        -0.2001 
     29 N          25.0672   23.0799    0.6175 N.am      3 UNK        -0.4354 
     30 C          24.3253   22.0756    1.0986 C.2       2 UNK         0.4964 
     31 O          23.4321   22.2231    1.9340 O.2       2 UNK        -0.5047 
     32 CA         24.6295   20.6608    0.5711 C.3       2 UNK         0.0288 
     33 CB         23.7557   20.3455   -0.6544 C.3       2 UNK        -0.2113 
     34 N          26.0396   20.4338    0.2324 N.am      2 UNK        -0.4145 
     35 C          27.0502   20.4405    1.1152 C.2       1 UNK         0.5006 
     36 O          26.9001   20.6650    2.3203 O.2       1 UNK        -0.5103 
     37 C          29.0833   30.6718    0.3927 C.2       5 UNK         0.5055 
     38 O          29.7889   30.8500    1.3850 O.2       5 UNK        -0.5220 
     39 N          28.0644   31.4737    0.0523 N.am      6 UNK        -0.4450 
     40 CA         27.5786   32.5997    0.8635 C.3       6 UNK         0.0367 
     41 CB         26.3404   33.2149    0.1923 C.3       6 UNK        -0.1929 
     42 C          28.6321   33.6876    1.1444 C.2       6 UNK         0.5070 
     43 O          28.5830   34.3230    2.1974 O.2       6 UNK        -0.5237 
     44 N          29.5807   33.8600    0.2147 N.am      7 UNK        -0.4739 
     45 CA         30.7104   34.7855    0.3278 C.3       7 UNK         0.0276 
     46 CB         31.3178   34.9941   -1.0697 C.3       7 UNK        -0.1927 
     47 C          31.7987   34.3346    1.3227 C.2       7 UNK         0.5013 
     48 O          32.6463   35.1542    1.6792 O.2       7 UNK        -0.5193 
     49 N          31.7813   33.0615    1.7413 N.am      8 UNK        -0.4253 
     50 CA         32.7711   32.4611    2.6361 C.3       8 UNK         0.0242 
     51 CB         33.8983   31.8207    1.8011 C.3       8 UNK        -0.2000 
     52 C          32.0953   31.4623    3.5866 C.2       8 UNK         0.4948 
     53 O          32.6572   30.4002    3.8543 O.2       8 UNK        -0.5275 
     54 N          30.8974   31.8127    4.0799 N.am      9 UNK        -0.4246 
     55 CA         30.0012   30.9337    4.8434 C.3       9 UNK         0.0261 
     56 CB         28.6742   31.6661    5.0974 C.3       9 UNK        -0.1959 
     57 C          30.5809   30.3881    6.1622 C.2       9 UNK         0.5033 
     58 O          30.1516   29.3247    6.6113 O.2       9 UNK        -0.5390 
     59 N          31.5523   31.1038    6.7465 N.am      10 UNK        -0.4215 
     60 CA         32.3278   30.6656    7.9110 C.3       10 UNK         0.0240 
     61 CB         33.0943   31.8679    8.4865 C.3       10 UNK        -0.1982 
     62 C          33.2981   29.5077    7.6008 C.2       10 UNK         0.4970 
     63 O          33.6761   28.7850    8.5232 O.2       10 UNK        -0.4916 
     64 N          33.6799   29.3538    6.3247 N.am      11 UNK        -0.4279 
     65 CA         34.5502   28.2983    5.7869 C.3       11 UNK         0.1003 
     66 C          36.0273   28.3169    6.2872 C.2       11 UNK         0.5709 
     67 N          36.5104   29.4075    6.8710 N.am      11 UNK        -0.7358 
     68 O          36.7609   27.3458    6.1171 O.2       11 UNK        -0.4999 
     69 C69        33.8724   26.8950    5.8507 C.3       12 UNK        -0.0954 
     70 S70        33.9099   26.0514    4.2366 S.3       12 UNK        -0.2268 
     71 C71        32.3293   26.6296    3.5476 C.3       12 UNK         0.0203 
     72 H72        31.0619   19.5540    3.5339 H         1 UNK         0.0888 
     73 H73        30.0215   18.3678    4.3242 H         1 UNK         0.0888 
     74 H74        31.2663   17.8353    3.1901 H         1 UNK         0.0888 
     75 H75        29.9596   20.6558    1.9238 H         1 UNK         0.3017 
     76 H76        28.3610   19.2512   -0.0678 H         1 UNK         0.0873 
     77 H77        29.8706   20.9395   -0.8958 H         1 UNK         0.0745 
     78 H78        28.2505   21.4695   -1.1934 H         1 UNK         0.0745 
     79 H79        31.6209   22.3339    0.8482 H         1 UNK         0.0705 
     80 H80        31.3534   22.7753   -0.8224 H         1 UNK         0.0705 
     81 H81        31.4791   24.2111    2.6387 H         1 UNK         0.1334 
     82 H82        32.8258   28.0468    1.2689 H         1 UNK         0.1417 
     83 H83        31.7486   25.0112   -1.5663 H         1 UNK         0.1562 
     84 H84        33.2686   26.9699   -2.1640 H         1 UNK         0.0748 
     85 H85        33.3753   28.3378   -1.0939 H         1 UNK         0.0748 
     86 H86        30.8908   30.5595   -1.6840 H         1 UNK         0.0940 
     87 H87        31.5584   29.6965   -0.3269 H         1 UNK         0.0940 
     88 H88        28.6719   29.4662   -1.3488 H         1 UNK         0.0703 
     89 H89        30.0835   27.7045    0.3839 H         1 UNK         0.3081 
     90 H90        28.9319   25.8556    1.1773 H         1 UNK         0.0719 
     91 H91        27.9261   27.5268    3.5554 H         1 UNK         0.0809 
     92 H92        28.8598   26.0312    3.6472 H         1 UNK         0.0809 
     93 H93        29.5892   27.4922    3.0018 H         1 UNK         0.0809 
     94 H94        26.4505   25.8668    2.6215 H         1 UNK         0.2990 
     95 H95        24.8472   24.4863    2.1437 H         1 UNK         0.0690 
     96 H96        22.8676   24.7511    0.6447 H         1 UNK         0.0788 
     97 H97        23.9170   25.1758   -0.7071 H         1 UNK         0.0788 
     98 H98        23.7903   26.2454    0.6833 H         1 UNK         0.0788 
     99 H99        25.7983   22.8844   -0.0543 H         1 UNK         0.2993 
    100 H100       24.3659   19.9594    1.3660 H         1 UNK         0.0949 
    101 H101       23.8841   19.3128   -0.9794 H         1 UNK         0.0767 
    102 H102       22.6977   20.4809   -0.4242 H         1 UNK         0.0767 
    103 H103       23.9912   20.9965   -1.4974 H         1 UNK         0.0767 
    104 H104       26.2417   20.2391   -0.7379 H         1 UNK         0.3013 
    105 H105       27.5288   31.2513   -0.7749 H         1 UNK         0.3121 
    106 H106       27.2735   32.1923    1.8295 H         1 UNK         0.0774 
    107 H107       25.9433   34.0391    0.7870 H         1 UNK         0.0815 
    108 H108       26.5714   33.6099   -0.7978 H         1 UNK         0.0815 
    109 H109       25.5403   32.4822    0.0853 H         1 UNK         0.0815 
    110 H110       29.5369   33.2933   -0.6197 H         1 UNK         0.2987 
    111 H111       30.3304   35.7461    0.6829 H         1 UNK         0.0949 
    112 H112       31.7134   34.0646   -1.4812 H         1 UNK         0.0806 
    113 H113       30.5798   35.3861   -1.7699 H         1 UNK         0.0806 
    114 H114       32.1400   35.7105   -1.0362 H         1 UNK         0.0806 
    115 H115       31.0284   32.4455    1.4453 H         1 UNK         0.3010 
    116 H116       33.2101   33.2321    3.2727 H         1 UNK         0.0829 
    117 H117       34.3792   32.5541    1.1540 H         1 UNK         0.0813 
    118 H118       34.6737   31.4002    2.4429 H         1 UNK         0.0813 
    119 H119       33.5200   31.0140    1.1721 H         1 UNK         0.0813 
    120 H120       30.5155   32.7055    3.8008 H         1 UNK         0.3038 
    121 H121       29.7930   30.0690    4.2091 H         1 UNK         0.0769 
    122 H122       28.8181   32.5668    5.6954 H         1 UNK         0.0811 
    123 H123       27.9704   31.0268    5.6323 H         1 UNK         0.0811 
    124 H124       28.1974   31.9565    4.1612 H         1 UNK         0.0811 
    125 H125       31.8264   31.9729    6.3121 H         1 UNK         0.3204 
    126 H126       31.6283   30.3099    8.6707 H         1 UNK         0.0748 
    127 H127       33.6628   31.5808    9.3725 H         1 UNK         0.0771 
    128 H128       33.8009   32.2813    7.7657 H         1 UNK         0.0771 
    129 H129       32.4141   32.6655    8.7863 H         1 UNK         0.0771 
    130 H130       33.2896   29.9663    5.6145 H         1 UNK         0.2980 
    131 H131       34.6428   28.5810    4.7378 H         1 UNK         0.0545 
    132 H132       35.9249   30.2149    7.0086 H         1 UNK         0.3459 
    133 H133       37.4688   29.4172    7.1823 H         1 UNK         0.3459 
    134 H134       32.8295   26.9726    6.1628 H         1 UNK         0.0616 
    135 H135       34.3423   26.2522    6.5971 H         1 UNK         0.0616 
    136 H136       31.5097   26.2447    4.1562 H         1 UNK         0.0634 
    137 H137       32.2800   27.7176    3.6140 H         1 UNK         0.0634 
@<TRIPOS>BOND
     1    1    2 1    
     2    1   72 1    
     3    1   73 1    
     4    1   74 1    
     5    2    3 2    
     6    2    4 am   BACKBONE|DICT|INTERRES
     7    4    5 1    
     8    4   75 1    
     9    5    6 1    
    10    5   35 1    
    11    5   76 1    
    12    6    7 1    
    13    6   77 1    
    14    6   78 1    
    15    7    8 1    
    16    8    9 1    
    17    8   79 1    
    18    8   80 1    
    19    9   10 ar   
    20    9   14 ar   
    21   10   11 ar   
    22   10   81 1    
    23   11   12 ar   
    24   11   71 1    
    25   12   13 ar   
    26   12   82 1    
    27   13   14 ar   
    28   13   15 1    
    29   14   83 1    
    30   15   16 1    
    31   15   84 1    
    32   15   85 1    
    33   16   17 1    
    34   17   18 1    
    35   17   86 1    
    36   17   87 1    
    37   18   19 1    
    38   18   37 1    
    39   18   88 1    
    40   19   20 am   BACKBONE|DICT|INTERRES
    41   19   89 1    
    42   20   21 2    
    43   20   22 1    
    44   22   23 1    
    45   22   24 1    
    46   22   90 1    
    47   23   91 1    
    48   23   92 1    
    49   23   93 1    
    50   24   25 am   BACKBONE|DICT|INTERRES
    51   24   94 1    
    52   25   26 2    
    53   25   27 1    
    54   27   28 1    
    55   27   29 1    
    56   27   95 1    
    57   28   96 1    
    58   28   97 1    
    59   28   98 1    
    60   29   30 am   BACKBONE|DICT|INTERRES
    61   29   99 1    
    62   30   31 2    
    63   30   32 1    
    64   32   33 1    
    65   32   34 1    
    66   32  100 1    
    67   33  101 1    
    68   33  102 1    
    69   33  103 1    
    70   34   35 am   BACKBONE|DICT|INTERRES
    71   34  104 1    
    72   35   36 2    
    73   37   38 2    
    74   37   39 am   BACKBONE|DICT|INTERRES
    75   39   40 1    
    76   39  105 1    
    77   40   41 1    
    78   40   42 1    
    79   40  106 1    
    80   41  107 1    
    81   41  108 1    
    82   41  109 1    
    83   42   43 2    
    84   42   44 am   BACKBONE|DICT|INTERRES
    85   44   45 1    
    86   44  110 1    
    87   45   46 1    
    88   45   47 1    
    89   45  111 1    
    90   46  112 1    
    91   46  113 1    
    92   46  114 1    
    93   47   48 2    
    94   47   49 am   BACKBONE|DICT|INTERRES
    95   49   50 1    
    96   49  115 1    
    97   50   51 1    
    98   50   52 1    
    99   50  116 1    
   100   51  117 1    
   101   51  118 1    
   102   51  119 1    
   103   52   53 2    
   104   52   54 am   BACKBONE|DICT|INTERRES
   105   54   55 1    
   106   54  120 1    
   107   55   56 1    
   108   55   57 1    
   109   55  121 1    
   110   56  122 1    
   111   56  123 1    
   112   56  124 1    
   113   57   58 2    
   114   57   59 am   BACKBONE|DICT|INTERRES
   115   59   60 1    
   116   59  125 1    
   117   60   61 1    
   118   60   62 1    
   119   60  126 1    
   120   61  127 1    
   121   61  128 1    
   122   61  129 1    
   123   62   63 2    
   124   62   64 am   BACKBONE|DICT|INTERRES
   125   64   65 1    
   126   64  130 1    
   127   65   66 1    
   128   65   69 1    
   129   65  131 1    
   130   66   67 am   BACKBONE|DICT|INTERRES
   131   66   68 2    
   132   67  132 1    
   133   67  133 1    
   134   69   70 1    
   135   69  134 1    
   136   69  135 1    
   137   70   71 1    
   138   71  136 1    
   139   71  137 1    
@<TRIPOS>SUBSTRUCTURE
     1 UNK         1 GROUP             0       ****    0 ROOT    
