@<TRIPOS>MOLECULE
3R136
137   139    1
SMALL
USER_CHARGES


@<TRIPOS>ATOM
      1 CA         30.0390   24.5376    5.3493 C.3       0 UNK        -0.1979 
      2 C          29.4529   23.2171    4.8705 C.2       0 UNK         0.4864 
      3 O          29.0065   22.4118    5.6894 O.2       0 UNK        -0.5359 
      4 N          29.4568   22.9894    3.5514 N.am      1 UNK        -0.4318 
      5 CA         28.8440   21.8328    2.8918 C.3       1 UNK         0.0824 
      6 C6         29.5232   21.5348    1.5264 C.3       12 UNK        -0.0944 
      7 S7         29.4781   22.9323    0.3517 S.3       12 UNK        -0.2672 
      8 C8         31.1816   23.5608    0.4508 C.3       12 UNK         0.0333 
      9 C9         31.2589   25.0464    0.1231 C.ar      12 UNK        -0.0807 
     10 C10        31.3028   25.9892    1.1554 C.ar      12 UNK        -0.0894 
     11 C11        31.4750   27.3479    0.8740 C.ar      12 UNK        -0.0804 
     12 C12        31.5774   27.7630   -0.4561 C.ar      12 UNK        -0.0824 
     13 C13        31.4829   26.8389   -1.5015 C.ar      12 UNK        -0.0762 
     14 C14        31.3300   25.4795   -1.2054 C.ar      12 UNK        -0.0782 
     15 C15        31.5872   27.3058   -2.9483 C.3       12 UNK         0.0230 
     16 S16        29.9563   27.6460   -3.6921 S.3       12 UNK        -0.2608 
     17 C17        29.4383   29.1692   -2.8214 C.3       12 UNK        -0.0989 
     18 CA         28.1718   28.9853   -1.9418 C.3       5 UNK         0.0716 
     19 N          28.2411   27.7802   -1.1074 N.am      5 UNK        -0.4135 
     20 C          27.1912   27.1740   -0.5413 C.2       4 UNK         0.5031 
     21 O          26.0320   27.5909   -0.5986 O.2       4 UNK        -0.5229 
     22 CA         27.5150   25.9100    0.2660 C.3       4 UNK         0.0329 
     23 CB         27.7266   26.2560    1.7493 C.3       4 UNK        -0.2001 
     24 N          26.4866   24.8739    0.1481 N.am      4 UNK        -0.4303 
     25 C          26.1444   24.2559   -0.9920 C.2       3 UNK         0.5044 
     26 O          26.6743   24.4801   -2.0820 O.2       3 UNK        -0.5152 
     27 CA         25.0542   23.1792   -0.8749 C.3       3 UNK         0.0319 
     28 CB         24.8229   22.3992   -2.1838 C.3       3 UNK        -0.2001 
     29 N          25.4088   22.2442    0.1916 N.am      3 UNK        -0.4354 
     30 C          24.5769   21.7988    1.1411 C.2       2 UNK         0.4964 
     31 O          23.3823   22.0939    1.1959 O.2       2 UNK        -0.5047 
     32 CA         25.1623   20.8647    2.2203 C.3       2 UNK         0.0288 
     33 CB         24.7514   19.4083    1.9454 C.3       2 UNK        -0.2113 
     34 N          26.6221   20.9260    2.3731 N.am      2 UNK        -0.4145 
     35 C          27.3112   22.0047    2.7734 C.2       1 UNK         0.5006 
     36 O          26.7804   23.0921    3.0190 O.2       1 UNK        -0.5103 
     37 C          27.8987   30.2677   -1.1225 C.2       5 UNK         0.5055 
     38 O          27.5778   31.2969   -1.7180 O.2       5 UNK        -0.5220 
     39 N          28.0581   30.1905    0.2107 N.am      6 UNK        -0.4450 
     40 CA         27.9184   31.2704    1.1980 C.3       6 UNK         0.0367 
     41 CB         26.4640   31.7845    1.2574 C.3       6 UNK        -0.1929 
     42 C          28.9506   32.3997    1.0056 C.2       6 UNK         0.5070 
     43 O          28.6500   33.5650    1.2685 O.2       6 UNK        -0.5237 
     44 N          30.1555   32.0277    0.5491 N.am      7 UNK        -0.4739 
     45 CA         31.2746   32.9367    0.2884 C.3       7 UNK         0.0276 
     46 CB         32.3663   32.1819   -0.4886 C.3       7 UNK        -0.1927 
     47 C          31.8578   33.5681    1.5644 C.2       7 UNK         0.5013 
     48 O          32.2682   34.7289    1.5293 O.2       7 UNK        -0.5193 
     49 N          31.8753   32.8002    2.6600 N.am      8 UNK        -0.4253 
     50 CA         32.3485   33.1928    3.9828 C.3       8 UNK         0.0242 
     51 CB         33.8879   33.3037    3.9928 C.3       8 UNK        -0.2000 
     52 C          31.8863   32.1361    4.9912 C.2       8 UNK         0.4948 
     53 O          31.5965   31.0024    4.6002 O.2       8 UNK        -0.5275 
     54 N          31.8861   32.5048    6.2791 N.am      9 UNK        -0.4246 
     55 CA         31.6518   31.5870    7.4023 C.3       9 UNK         0.0261 
     56 CB         31.3394   32.4034    8.6670 C.3       9 UNK        -0.1959 
     57 C          32.8339   30.6299    7.6578 C.2       9 UNK         0.5033 
     58 O          32.6493   29.5965    8.3032 O.2       9 UNK        -0.5390 
     59 N          34.0180   30.9772    7.1297 N.am      10 UNK        -0.4215 
     60 CA         35.2762   30.2287    7.2161 C.3       10 UNK         0.0240 
     61 CB         36.3884   31.0529    6.5455 C.3       10 UNK        -0.1982 
     62 C          35.2331   28.8061    6.6249 C.2       10 UNK         0.4970 
     63 O          36.1150   28.0072    6.9434 O.2       10 UNK        -0.4916 
     64 N          34.2217   28.5050    5.7987 N.am      11 UNK        -0.4279 
     65 CA         33.9286   27.1546    5.2963 C.3       11 UNK         0.1003 
     66 C          33.5282   26.1351    6.4046 C.2       11 UNK         0.5709 
     67 N          33.0669   26.5700    7.5732 N.am      11 UNK        -0.7358 
     68 O          33.6376   24.9296    6.1955 O.2       11 UNK        -0.4999 
     69 C69        32.8485   27.1654    4.1842 C.3       12 UNK        -0.0954 
     70 S70        33.1877   28.3318    2.8232 S.3       12 UNK        -0.2268 
     71 C71        31.5641   28.3709    1.9991 C.3       12 UNK         0.0203 
     72 H72        30.8664   24.3532    6.0339 H         1 UNK         0.0888 
     73 H73        30.4098   25.1440    4.5239 H         1 UNK         0.0888 
     74 H74        29.2810   25.1142    5.8786 H         1 UNK         0.0888 
     75 H75        29.7897   23.7030    2.9218 H         1 UNK         0.3017 
     76 H76        29.0063   20.9611    3.5299 H         1 UNK         0.0873 
     77 H77        30.5607   21.2412    1.6938 H         1 UNK         0.0745 
     78 H78        29.0632   20.6712    1.0434 H         1 UNK         0.0745 
     79 H79        31.5867   23.3845    1.4483 H         1 UNK         0.0705 
     80 H80        31.8114   22.9927   -0.2356 H         1 UNK         0.0705 
     81 H81        31.2316   25.6613    2.1813 H         1 UNK         0.1334 
     82 H82        31.7392   28.8087   -0.6759 H         1 UNK         0.1417 
     83 H83        31.2828   24.7554   -2.0079 H         1 UNK         0.1562 
     84 H84        32.0872   26.5402   -3.5436 H         1 UNK         0.0748 
     85 H85        32.2145   28.1959   -3.0199 H         1 UNK         0.0748 
     86 H86        29.2465   29.9290   -3.5818 H         1 UNK         0.0940 
     87 H87        30.2719   29.5580   -2.2370 H         1 UNK         0.0940 
     88 H88        27.3212   28.8595   -2.6156 H         1 UNK         0.0703 
     89 H89        29.1527   27.3478   -1.0376 H         1 UNK         0.3081 
     90 H90        28.4421   25.4970   -0.1300 H         1 UNK         0.0719 
     91 H91        26.8121   26.6320    2.2096 H         1 UNK         0.0809 
     92 H92        28.0525   25.3838    2.3149 H         1 UNK         0.0809 
     93 H93        28.4937   27.0210    1.8721 H         1 UNK         0.0809 
     94 H94        26.0159   24.6068    1.0015 H         1 UNK         0.2990 
     95 H95        24.1312   23.7067   -0.6250 H         1 UNK         0.0690 
     96 H96        24.0217   21.6684   -2.0720 H         1 UNK         0.0788 
     97 H97        25.7211   21.8665   -2.4987 H         1 UNK         0.0788 
     98 H98        24.5373   23.0704   -2.9948 H         1 UNK         0.0788 
     99 H99        26.3820   21.9755    0.2376 H         1 UNK         0.2993 
    100 H100       24.7215   21.1699    3.1720 H         1 UNK         0.0949 
    101 H101       25.0661   18.7466    2.7528 H         1 UNK         0.0767 
    102 H102       23.6675   19.3166    1.8600 H         1 UNK         0.0767 
    103 H103       25.1837   19.0359    1.0156 H         1 UNK         0.0767 
    104 H104       27.1252   20.0706    2.1851 H         1 UNK         0.3013 
    105 H105       28.3106   29.2890    0.5877 H         1 UNK         0.3121 
    106 H106       28.1444   30.8254    2.1684 H         1 UNK         0.0774 
    107 H107       26.3277   32.4763    2.0896 H         1 UNK         0.0815 
    108 H108       26.1833   32.3148    0.3471 H         1 UNK         0.0815 
    109 H109       25.7591   30.9655    1.3998 H         1 UNK         0.0815 
    110 H110       30.3038   31.0522    0.3445 H         1 UNK         0.2987 
    111 H111       30.9060   33.7505   -0.3404 H         1 UNK         0.0949 
    112 H112       32.7644   31.3418    0.0823 H         1 UNK         0.0806 
    113 H113       31.9874   31.7977   -1.4359 H         1 UNK         0.0806 
    114 H114       33.2036   32.8415   -0.7213 H         1 UNK         0.0806 
    115 H115       31.4988   31.8609    2.6236 H         1 UNK         0.3010 
    116 H116       31.9012   34.1535    4.2467 H         1 UNK         0.0829 
    117 H117       34.2421   34.0546    3.2867 H         1 UNK         0.0813 
    118 H118       34.2592   33.5970    4.9751 H         1 UNK         0.0813 
    119 H119       34.3596   32.3551    3.7319 H         1 UNK         0.0813 
    120 H120       32.1164   33.4603    6.5154 H         1 UNK         0.3038 
    121 H121       30.7803   30.9716    7.1681 H         1 UNK         0.0769 
    122 H122       32.1738   33.0456    8.9519 H         1 UNK         0.0811 
    123 H123       31.1307   31.7468    9.5130 H         1 UNK         0.0811 
    124 H124       30.4615   33.0341    8.5258 H         1 UNK         0.0811 
    125 H125       34.0574   31.8490    6.6249 H         1 UNK         0.3204 
    126 H126       35.5173   30.1237    8.2758 H         1 UNK         0.0748 
    127 H127       36.5017   32.0289    7.0179 H         1 UNK         0.0771 
    128 H128       37.3519   30.5466    6.6223 H         1 UNK         0.0771 
    129 H129       36.1886   31.2123    5.4849 H         1 UNK         0.0771 
    130 H130       33.5463   29.2187    5.5674 H         1 UNK         0.2980 
    131 H131       34.8516   26.7780    4.8516 H         1 UNK         0.0545 
    132 H132       32.8157   25.9006    8.2827 H         1 UNK         0.3459 
    133 H133       32.9674   27.5614    7.7574 H         1 UNK         0.3459 
    134 H134       31.8764   27.4138    4.6147 H         1 UNK         0.0616 
    135 H135       32.7562   26.1672    3.7551 H         1 UNK         0.0616 
    136 H136       30.7635   28.2062    2.7214 H         1 UNK         0.0634 
    137 H137       31.4095   29.3771    1.6083 H         1 UNK         0.0634 
@<TRIPOS>BOND
     1    1    2 1    
     2    1   72 1    
     3    1   73 1    
     4    1   74 1    
     5    2    3 2    
     6    2    4 am   BACKBONE|DICT|INTERRES
     7    4    5 1    
     8    4   75 1    
     9    5    6 1    
    10    5   35 1    
    11    5   76 1    
    12    6    7 1    
    13    6   77 1    
    14    6   78 1    
    15    7    8 1    
    16    8    9 1    
    17    8   79 1    
    18    8   80 1    
    19    9   10 ar   
    20    9   14 ar   
    21   10   11 ar   
    22   10   81 1    
    23   11   12 ar   
    24   11   71 1    
    25   12   13 ar   
    26   12   82 1    
    27   13   14 ar   
    28   13   15 1    
    29   14   83 1    
    30   15   16 1    
    31   15   84 1    
    32   15   85 1    
    33   16   17 1    
    34   17   18 1    
    35   17   86 1    
    36   17   87 1    
    37   18   19 1    
    38   18   37 1    
    39   18   88 1    
    40   19   20 am   BACKBONE|DICT|INTERRES
    41   19   89 1    
    42   20   21 2    
    43   20   22 1    
    44   22   23 1    
    45   22   24 1    
    46   22   90 1    
    47   23   91 1    
    48   23   92 1    
    49   23   93 1    
    50   24   25 am   BACKBONE|DICT|INTERRES
    51   24   94 1    
    52   25   26 2    
    53   25   27 1    
    54   27   28 1    
    55   27   29 1    
    56   27   95 1    
    57   28   96 1    
    58   28   97 1    
    59   28   98 1    
    60   29   30 am   BACKBONE|DICT|INTERRES
    61   29   99 1    
    62   30   31 2    
    63   30   32 1    
    64   32   33 1    
    65   32   34 1    
    66   32  100 1    
    67   33  101 1    
    68   33  102 1    
    69   33  103 1    
    70   34   35 am   BACKBONE|DICT|INTERRES
    71   34  104 1    
    72   35   36 2    
    73   37   38 2    
    74   37   39 am   BACKBONE|DICT|INTERRES
    75   39   40 1    
    76   39  105 1    
    77   40   41 1    
    78   40   42 1    
    79   40  106 1    
    80   41  107 1    
    81   41  108 1    
    82   41  109 1    
    83   42   43 2    
    84   42   44 am   BACKBONE|DICT|INTERRES
    85   44   45 1    
    86   44  110 1    
    87   45   46 1    
    88   45   47 1    
    89   45  111 1    
    90   46  112 1    
    91   46  113 1    
    92   46  114 1    
    93   47   48 2    
    94   47   49 am   BACKBONE|DICT|INTERRES
    95   49   50 1    
    96   49  115 1    
    97   50   51 1    
    98   50   52 1    
    99   50  116 1    
   100   51  117 1    
   101   51  118 1    
   102   51  119 1    
   103   52   53 2    
   104   52   54 am   BACKBONE|DICT|INTERRES
   105   54   55 1    
   106   54  120 1    
   107   55   56 1    
   108   55   57 1    
   109   55  121 1    
   110   56  122 1    
   111   56  123 1    
   112   56  124 1    
   113   57   58 2    
   114   57   59 am   BACKBONE|DICT|INTERRES
   115   59   60 1    
   116   59  125 1    
   117   60   61 1    
   118   60   62 1    
   119   60  126 1    
   120   61  127 1    
   121   61  128 1    
   122   61  129 1    
   123   62   63 2    
   124   62   64 am   BACKBONE|DICT|INTERRES
   125   64   65 1    
   126   64  130 1    
   127   65   66 1    
   128   65   69 1    
   129   65  131 1    
   130   66   67 am   BACKBONE|DICT|INTERRES
   131   66   68 2    
   132   67  132 1    
   133   67  133 1    
   134   69   70 1    
   135   69  134 1    
   136   69  135 1    
   137   70   71 1    
   138   71  136 1    
   139   71  137 1    
@<TRIPOS>SUBSTRUCTURE
     1 UNK         1 GROUP             0       ****    0 ROOT    
