@<TRIPOS>MOLECULE
3R136
137   139    1
SMALL
USER_CHARGES


@<TRIPOS>ATOM
      1 CA         30.0567   16.4901   -0.8308 C.3       0 UNK        -0.1979 
      2 C          29.8870   17.9898   -1.0237 C.2       0 UNK         0.4864 
      3 O          29.7204   18.4448   -2.1560 O.2       0 UNK        -0.5359 
      4 N          29.9280   18.7600    0.0733 N.am      1 UNK        -0.4318 
      5 CA         29.7764   20.2225    0.0797 C.3       1 UNK         0.0824 
      6 C6         30.3143   20.8357    1.4026 C.3       12 UNK        -0.0944 
      7 S7         31.1934   22.4121    1.1440 S.3       12 UNK        -0.2672 
      8 C8         29.9374   23.5988    1.7031 C.3       12 UNK         0.0333 
      9 C9         30.3953   25.0341    1.4986 C.ar      12 UNK        -0.0807 
     10 C10        30.7950   25.8116    2.5900 C.ar      12 UNK        -0.0894 
     11 C11        31.1622   27.1487    2.4104 C.ar      12 UNK        -0.0804 
     12 C12        31.1654   27.6948    1.1234 C.ar      12 UNK        -0.0824 
     13 C13        30.7571   26.9309    0.0269 C.ar      12 UNK        -0.0762 
     14 C14        30.3704   25.6014    0.2209 C.ar      12 UNK        -0.0782 
     15 C15        30.7324   27.5394   -1.3671 C.3       12 UNK         0.0230 
     16 S16        29.0545   28.0521   -1.8583 S.3       12 UNK        -0.2608 
     17 C17        28.7621   29.5137   -0.8030 C.3       12 UNK        -0.0989 
     18 CA         27.5567   29.3262    0.1525 C.3       5 UNK         0.0716 
     19 N          27.7247   28.1781    1.0511 N.am      5 UNK        -0.4135 
     20 C          26.7283   27.6018    1.7351 C.2       4 UNK         0.5031 
     21 O          25.5520   27.9697    1.6912 O.2       4 UNK        -0.5229 
     22 CA         27.1192   26.4363    2.6547 C.3       4 UNK         0.0329 
     23 CB         27.1601   26.8886    4.1233 C.3       4 UNK        -0.2001 
     24 N          26.2121   25.2970    2.5151 N.am      4 UNK        -0.4303 
     25 C          26.1307   24.5276    1.4223 C.2       3 UNK         0.5044 
     26 O          26.8104   24.6915    0.4070 O.2       3 UNK        -0.5152 
     27 CA         25.1130   23.3852    1.4693 C.3       3 UNK         0.0319 
     28 CB         23.7490   23.8429    0.9196 C.3       3 UNK        -0.2001 
     29 N          25.6234   22.2610    0.6873 N.am      3 UNK        -0.4354 
     30 C          25.2431   20.9871    0.8261 C.2       2 UNK         0.4964 
     31 O          24.4072   20.6115    1.6491 O.2       2 UNK        -0.5047 
     32 CA         25.8963   19.9459   -0.0983 C.3       2 UNK         0.0288 
     33 CB         25.5202   20.1710   -1.5778 C.3       2 UNK        -0.2113 
     34 N          27.3468   19.8079    0.0902 N.am      2 UNK        -0.4145 
     35 C          28.3258   20.6738   -0.2190 C.2       1 UNK         0.5006 
     36 O          28.1277   21.7771   -0.7287 O.2       1 UNK        -0.5103 
     37 C          27.2721   30.6366    0.9174 C.2       5 UNK         0.5055 
     38 O          26.6415   31.5306    0.3519 O.2       5 UNK        -0.5220 
     39 N          27.7539   30.7303    2.1692 N.am      6 UNK        -0.4450 
     40 CA         27.6613   31.8813    3.0800 C.3       6 UNK         0.0367 
     41 CB         26.1969   32.1370    3.4949 C.3       6 UNK        -0.1929 
     42 C          28.3624   33.1445    2.5372 C.2       6 UNK         0.5070 
     43 O          27.9310   34.2622    2.8252 O.2       6 UNK        -0.5237 
     44 N          29.4318   32.9430    1.7577 N.am      7 UNK        -0.4739 
     45 CA         30.1908   33.9904    1.0731 C.3       7 UNK         0.0276 
     46 CB         29.5214   34.3180   -0.2774 C.3       7 UNK        -0.1927 
     47 C          31.6678   33.5880    0.9284 C.2       7 UNK         0.5013 
     48 O          32.2943   33.9024   -0.0851 O.2       7 UNK        -0.5193 
     49 N          32.1998   32.8892    1.9372 N.am      8 UNK        -0.4253 
     50 CA         33.5898   32.4548    2.0242 C.3       8 UNK         0.0242 
     51 CB         33.7320   31.0487    1.4137 C.3       8 UNK        -0.2000 
     52 C          33.9899   32.4451    3.5003 C.2       8 UNK         0.4948 
     53 O          33.1389   32.1795    4.3523 O.2       8 UNK        -0.5275 
     54 N          35.2796   32.6787    3.7808 N.am      9 UNK        -0.4246 
     55 CA         35.8519   32.6775    5.1352 C.3       9 UNK         0.0261 
     56 CB         37.3269   33.1052    5.0709 C.3       9 UNK        -0.1959 
     57 C          35.7123   31.3281    5.8638 C.2       9 UNK         0.5033 
     58 O          35.5656   31.3085    7.0868 O.2       9 UNK        -0.5390 
     59 N          35.7028   30.2316    5.0922 N.am      10 UNK        -0.4215 
     60 CA         35.4497   28.8654    5.5540 C.3       10 UNK         0.0240 
     61 CB         35.6889   27.8913    4.3880 C.3       10 UNK        -0.1982 
     62 C          34.0465   28.6500    6.1538 C.2       10 UNK         0.4970 
     63 O          33.8710   27.6947    6.9110 O.2       10 UNK        -0.4916 
     64 N          33.0803   29.5191    5.8191 N.am      11 UNK        -0.4279 
     65 CA         31.7286   29.5042    6.3956 C.3       11 UNK         0.1003 
     66 C          31.6610   30.1426    7.8167 C.2       11 UNK         0.5709 
     67 N          32.7131   30.7768    8.3254 N.am      11 UNK        -0.7358 
     68 O          30.6314   30.0477    8.4806 O.2       11 UNK        -0.4999 
     69 C69        30.6745   30.1458    5.4488 C.3       12 UNK        -0.0954 
     70 S70        30.3981   29.4130    3.7900 S.3       12 UNK        -0.2268 
     71 C71        31.5431   28.0068    3.6065 C.3       12 UNK         0.0203 
     72 H72        29.1762   15.9628   -1.1969 H         1 UNK         0.0888 
     73 H73        30.9228   16.1360   -1.3893 H         1 UNK         0.0888 
     74 H74        30.1987   16.2262    0.2171 H         1 UNK         0.0888 
     75 H75        30.0812   18.3272    0.9736 H         1 UNK         0.3017 
     76 H76        30.3883   20.5945   -0.7456 H         1 UNK         0.0873 
     77 H77        29.5289   20.9506    2.1529 H         1 UNK         0.0745 
     78 H78        31.0467   20.1669    1.8580 H         1 UNK         0.0745 
     79 H79        29.0142   23.4331    1.1497 H         1 UNK         0.0705 
     80 H80        29.7052   23.4140    2.7531 H         1 UNK         0.0705 
     81 H81        30.7961   25.3814    3.5823 H         1 UNK         0.1334 
     82 H82        31.4664   28.7236    0.9823 H         1 UNK         0.1417 
     83 H83        30.0416   25.0066   -0.6213 H         1 UNK         0.1562 
     84 H84        31.0991   26.8066   -2.0874 H         1 UNK         0.0748 
     85 H85        31.4105   28.3919   -1.4327 H         1 UNK         0.0748 
     86 H86        28.5840   30.3597   -1.4705 H         1 UNK         0.0940 
     87 H87        29.6664   29.7635   -0.2468 H         1 UNK         0.0940 
     88 H88        26.6764   29.1291   -0.4639 H         1 UNK         0.0703 
     89 H89        28.6535   27.7818    1.1033 H         1 UNK         0.3081 
     90 H90        28.1140   26.0966    2.3781 H         1 UNK         0.0719 
     91 H91        26.1816   27.2236    4.4702 H         1 UNK         0.0809 
     92 H92        27.4930   26.0830    4.7779 H         1 UNK         0.0809 
     93 H93        27.8546   27.7187    4.2578 H         1 UNK         0.0809 
     94 H94        25.5837   25.1222    3.2858 H         1 UNK         0.2990 
     95 H95        24.9974   23.0689    2.5084 H         1 UNK         0.0690 
     96 H96        23.0021   23.0525    0.9944 H         1 UNK         0.0788 
     97 H97        23.8193   24.1395   -0.1277 H         1 UNK         0.0788 
     98 H98        23.3692   24.7000    1.4773 H         1 UNK         0.0788 
     99 H99        26.3737   22.4848    0.0365 H         1 UNK         0.2993 
    100 H100       25.4770   18.9796    0.1877 H         1 UNK         0.0949 
    101 H101       25.9232   19.3807   -2.2114 H         1 UNK         0.0767 
    102 H102       24.4370   20.1690   -1.7062 H         1 UNK         0.0767 
    103 H103       25.8872   21.1239   -1.9596 H         1 UNK         0.0767 
    104 H104       27.6339   18.9411    0.5228 H         1 UNK         0.3013 
    105 H105       28.2752   29.9422    2.5294 H         1 UNK         0.3121 
    106 H106       28.2090   31.6025    3.9813 H         1 UNK         0.0774 
    107 H107       26.1387   32.8907    4.2810 H         1 UNK         0.0815 
    108 H108       25.5954   32.4940    2.6585 H         1 UNK         0.0815 
    109 H109       25.7305   31.2309    3.8814 H         1 UNK         0.0815 
    110 H110       29.7322   31.9934    1.5883 H         1 UNK         0.2987 
    111 H111       30.1862   34.8948    1.6856 H         1 UNK         0.0949 
    112 H112       29.5215   33.4545   -0.9436 H         1 UNK         0.0806 
    113 H113       28.4871   34.6345   -0.1419 H         1 UNK         0.0806 
    114 H114       30.0405   35.1293   -0.7893 H         1 UNK         0.0806 
    115 H115       31.6563   32.7174    2.7746 H         1 UNK         0.3010 
    116 H116       34.2329   33.1581    1.4902 H         1 UNK         0.0829 
    117 H117       33.4284   31.0385    0.3667 H         1 UNK         0.0813 
    118 H118       34.7659   30.7041    1.4535 H         1 UNK         0.0813 
    119 H119       33.1218   30.3180    1.9455 H         1 UNK         0.0813 
    120 H120       35.9147   32.8832    3.0218 H         1 UNK         0.3038 
    121 H121       35.3059   33.4190    5.7226 H         1 UNK         0.0769 
    122 H122       37.9231   32.4170    4.4704 H         1 UNK         0.0811 
    123 H123       37.7683   33.1331    6.0683 H         1 UNK         0.0811 
    124 H124       37.4334   34.1031    4.6450 H         1 UNK         0.0811 
    125 H125       35.8379   30.3556    4.0998 H         1 UNK         0.3204 
    126 H126       36.1730   28.6439    6.3415 H         1 UNK         0.0748 
    127 H127       36.7151   27.9516    4.0249 H         1 UNK         0.0771 
    128 H128       35.5190   26.8591    4.6984 H         1 UNK         0.0771 
    129 H129       35.0231   28.0922    3.5479 H         1 UNK         0.0771 
    130 H130       33.2907   30.3125    5.2242 H         1 UNK         0.2980 
    131 H131       31.4327   28.4645    6.5425 H         1 UNK         0.0545 
    132 H132       32.6450   31.1753    9.2482 H         1 UNK         0.3459 
    133 H133       33.5760   30.8636    7.8034 H         1 UNK         0.3459 
    134 H134       30.9058   31.2014    5.3018 H         1 UNK         0.0616 
    135 H135       29.6970   30.1344    5.9344 H         1 UNK         0.0616 
    136 H136       32.5570   28.3772    3.4603 H         1 UNK         0.0634 
    137 H137       31.5424   27.4050    4.5152 H         1 UNK         0.0634 
@<TRIPOS>BOND
     1    1    2 1    
     2    1   72 1    
     3    1   73 1    
     4    1   74 1    
     5    2    3 2    
     6    2    4 am   BACKBONE|DICT|INTERRES
     7    4    5 1    
     8    4   75 1    
     9    5    6 1    
    10    5   35 1    
    11    5   76 1    
    12    6    7 1    
    13    6   77 1    
    14    6   78 1    
    15    7    8 1    
    16    8    9 1    
    17    8   79 1    
    18    8   80 1    
    19    9   10 ar   
    20    9   14 ar   
    21   10   11 ar   
    22   10   81 1    
    23   11   12 ar   
    24   11   71 1    
    25   12   13 ar   
    26   12   82 1    
    27   13   14 ar   
    28   13   15 1    
    29   14   83 1    
    30   15   16 1    
    31   15   84 1    
    32   15   85 1    
    33   16   17 1    
    34   17   18 1    
    35   17   86 1    
    36   17   87 1    
    37   18   19 1    
    38   18   37 1    
    39   18   88 1    
    40   19   20 am   BACKBONE|DICT|INTERRES
    41   19   89 1    
    42   20   21 2    
    43   20   22 1    
    44   22   23 1    
    45   22   24 1    
    46   22   90 1    
    47   23   91 1    
    48   23   92 1    
    49   23   93 1    
    50   24   25 am   BACKBONE|DICT|INTERRES
    51   24   94 1    
    52   25   26 2    
    53   25   27 1    
    54   27   28 1    
    55   27   29 1    
    56   27   95 1    
    57   28   96 1    
    58   28   97 1    
    59   28   98 1    
    60   29   30 am   BACKBONE|DICT|INTERRES
    61   29   99 1    
    62   30   31 2    
    63   30   32 1    
    64   32   33 1    
    65   32   34 1    
    66   32  100 1    
    67   33  101 1    
    68   33  102 1    
    69   33  103 1    
    70   34   35 am   BACKBONE|DICT|INTERRES
    71   34  104 1    
    72   35   36 2    
    73   37   38 2    
    74   37   39 am   BACKBONE|DICT|INTERRES
    75   39   40 1    
    76   39  105 1    
    77   40   41 1    
    78   40   42 1    
    79   40  106 1    
    80   41  107 1    
    81   41  108 1    
    82   41  109 1    
    83   42   43 2    
    84   42   44 am   BACKBONE|DICT|INTERRES
    85   44   45 1    
    86   44  110 1    
    87   45   46 1    
    88   45   47 1    
    89   45  111 1    
    90   46  112 1    
    91   46  113 1    
    92   46  114 1    
    93   47   48 2    
    94   47   49 am   BACKBONE|DICT|INTERRES
    95   49   50 1    
    96   49  115 1    
    97   50   51 1    
    98   50   52 1    
    99   50  116 1    
   100   51  117 1    
   101   51  118 1    
   102   51  119 1    
   103   52   53 2    
   104   52   54 am   BACKBONE|DICT|INTERRES
   105   54   55 1    
   106   54  120 1    
   107   55   56 1    
   108   55   57 1    
   109   55  121 1    
   110   56  122 1    
   111   56  123 1    
   112   56  124 1    
   113   57   58 2    
   114   57   59 am   BACKBONE|DICT|INTERRES
   115   59   60 1    
   116   59  125 1    
   117   60   61 1    
   118   60   62 1    
   119   60  126 1    
   120   61  127 1    
   121   61  128 1    
   122   61  129 1    
   123   62   63 2    
   124   62   64 am   BACKBONE|DICT|INTERRES
   125   64   65 1    
   126   64  130 1    
   127   65   66 1    
   128   65   69 1    
   129   65  131 1    
   130   66   67 am   BACKBONE|DICT|INTERRES
   131   66   68 2    
   132   67  132 1    
   133   67  133 1    
   134   69   70 1    
   135   69  134 1    
   136   69  135 1    
   137   70   71 1    
   138   71  136 1    
   139   71  137 1    
@<TRIPOS>SUBSTRUCTURE
     1 UNK         1 GROUP             0       ****    0 ROOT    
