@<TRIPOS>MOLECULE
3R136
137   139    1
SMALL
USER_CHARGES


@<TRIPOS>ATOM
      1 CA         26.9650   20.1842    5.6366 C.3       0 UNK        -0.1979 
      2 C          27.5642   21.0673    4.5521 C.2       0 UNK         0.4864 
      3 O          28.4069   20.6030    3.7836 O.2       0 UNK        -0.5359 
      4 N          27.1326   22.3344    4.4838 N.am      1 UNK        -0.4318 
      5 CA         27.6081   23.3345    3.5181 C.3       1 UNK         0.0824 
      6 C6         27.2775   24.7765    3.9786 C.3       12 UNK        -0.0944 
      7 S7         28.3248   25.2786    5.3871 S.3       12 UNK        -0.2672 
      8 C8         29.5414   26.3797    4.5884 C.3       12 UNK         0.0333 
      9 C9         30.4421   25.6384    3.6087 C.ar      12 UNK        -0.0807 
     10 C10        31.6068   25.0034    4.0477 C.ar      12 UNK        -0.0894 
     11 C11        32.4421   24.3444    3.1374 C.ar      12 UNK        -0.0804 
     12 C12        32.0899   24.2981    1.7840 C.ar      12 UNK        -0.0824 
     13 C13        30.9268   24.9287    1.3352 C.ar      12 UNK        -0.0762 
     14 C14        30.1165   25.6015    2.2517 C.ar      12 UNK        -0.0782 
     15 C15        30.5234   24.8603   -0.1312 C.3       12 UNK         0.0230 
     16 S16        31.5115   25.9590   -1.1958 S.3       12 UNK        -0.2608 
     17 C17        31.0976   27.6292   -0.5874 C.3       12 UNK        -0.0989 
     18 CA         29.9200   28.2882   -1.3657 C.3       5 UNK         0.0716 
     19 N          28.6214   27.6684   -1.0690 N.am      5 UNK        -0.4135 
     20 C          27.9422   27.7470    0.0850 C.2       4 UNK         0.5031 
     21 O          28.3240   28.3896    1.0625 O.2       4 UNK        -0.5229 
     22 CA         26.6429   26.9404    0.2221 C.3       4 UNK         0.0329 
     23 CB         25.4039   27.8190   -0.0376 C.3       4 UNK        -0.2001 
     24 N          26.6122   25.6877   -0.5434 N.am      4 UNK        -0.4303 
     25 C          26.4507   25.5033   -1.8608 C.2       3 UNK         0.5044 
     26 O          26.3987   26.4274   -2.6726 O.2       3 UNK        -0.5152 
     27 CA         26.3703   24.0509   -2.3775 C.3       3 UNK         0.0319 
     28 CB         27.5642   23.7453   -3.2985 C.3       3 UNK        -0.2001 
     29 N          26.3226   23.0294   -1.3257 N.am      3 UNK        -0.4354 
     30 C          25.3148   22.8062   -0.4686 C.2       2 UNK         0.4964 
     31 O          24.2443   23.4135   -0.4916 O.2       2 UNK        -0.5047 
     32 CA         25.5555   21.7338    0.6146 C.3       2 UNK         0.0288 
     33 CB         26.4676   20.5848    0.1294 C.3       2 UNK        -0.2113 
     34 N          26.0686   22.2696    1.8864 N.am      2 UNK        -0.4145 
     35 C          27.1264   23.0785    2.0730 C.2       1 UNK         0.5006 
     36 O          27.7428   23.6162    1.1539 O.2       1 UNK        -0.5103 
     37 C          29.8339   29.8189   -1.1689 C.2       5 UNK         0.5055 
     38 O          29.2243   30.4995   -1.9962 O.2       5 UNK        -0.5220 
     39 N          30.4088   30.3203   -0.0710 N.am      6 UNK        -0.4450 
     40 CA         30.2999   31.6940    0.3993 C.3       6 UNK         0.0367 
     41 CB         31.4614   32.5363   -0.1638 C.3       6 UNK        -0.1929 
     42 C          30.2721   31.6406    1.9312 C.2       6 UNK         0.5070 
     43 O          31.1646   32.1922    2.5722 O.2       6 UNK        -0.5237 
     44 N          29.2679   30.9326    2.4755 N.am      7 UNK        -0.4739 
     45 CA         29.1069   30.4949    3.8725 C.3       7 UNK         0.0276 
     46 CB         27.6735   29.9771    4.0793 C.3       7 UNK        -0.1927 
     47 C          29.4613   31.5002    4.9832 C.2       7 UNK         0.5013 
     48 O          29.9492   31.0737    6.0301 O.2       7 UNK        -0.5193 
     49 N          29.2734   32.8042    4.7356 N.am      8 UNK        -0.4253 
     50 CA         29.7171   33.8984    5.6102 C.3       8 UNK         0.0242 
     51 CB         29.2404   35.2372    5.0243 C.3       8 UNK        -0.2000 
     52 C          31.2419   33.9307    5.8551 C.2       8 UNK         0.4948 
     53 O          31.6704   34.4117    6.9046 O.2       8 UNK        -0.5275 
     54 N          32.0214   33.3991    4.9048 N.am      9 UNK        -0.4246 
     55 CA         33.4660   33.1846    4.9829 C.3       9 UNK         0.0261 
     56 CB         34.1373   33.9494    3.8270 C.3       9 UNK        -0.1959 
     57 C          33.8074   31.6795    4.9459 C.2       9 UNK         0.5033 
     58 O          34.9448   31.3311    4.6245 O.2       9 UNK        -0.5390 
     59 N          32.8344   30.8181    5.2841 N.am      10 UNK        -0.4215 
     60 CA         32.8906   29.3536    5.2753 C.3       10 UNK         0.0240 
     61 CB         33.8745   28.8284    6.3477 C.3       10 UNK        -0.1982 
     62 C          33.1084   28.7811    3.8589 C.2       10 UNK         0.4970 
     63 O          32.3495   29.1211    2.9494 O.2       10 UNK        -0.4916 
     64 N          34.0827   27.8766    3.7151 N.am      11 UNK        -0.4279 
     65 CA         34.3594   27.1130    2.4923 C.3       11 UNK         0.1003 
     66 C          34.8852   27.9856    1.3210 C.2       11 UNK         0.5709 
     67 N          34.6101   27.5921    0.0846 N.am      11 UNK        -0.7358 
     68 O          35.5832   28.9786    1.5168 O.2       11 UNK        -0.4999 
     69 C69        35.3153   25.9148    2.7598 C.3       12 UNK        -0.0954 
     70 S70        34.9116   24.9376    4.2526 S.3       12 UNK        -0.2268 
     71 C71        33.7365   23.7016    3.6128 C.3       12 UNK         0.0203 
     72 H72        27.7499   19.8188    6.2982 H         1 UNK         0.0888 
     73 H73        26.2341   20.7199    6.2421 H         1 UNK         0.0888 
     74 H74        26.4688   19.3238    5.1884 H         1 UNK         0.0888 
     75 H75        26.4570   22.6650    5.1585 H         1 UNK         0.3017 
     76 H76        28.6959   23.2423    3.4698 H         1 UNK         0.0873 
     77 H77        26.2295   24.8566    4.2724 H         1 UNK         0.0745 
     78 H78        27.4093   25.4996    3.1744 H         1 UNK         0.0745 
     79 H79        29.0175   27.1916    4.0816 H         1 UNK         0.0705 
     80 H80        30.1510   26.8505    5.3611 H         1 UNK         0.0705 
     81 H81        31.8752   25.0367    5.0948 H         1 UNK         0.1334 
     82 H82        32.7247   23.7838    1.0754 H         1 UNK         0.1417 
     83 H83        29.2171   26.0863    1.9089 H         1 UNK         0.1562 
     84 H84        29.4676   25.0983   -0.2547 H         1 UNK         0.0748 
     85 H85        30.6380   23.8346   -0.4842 H         1 UNK         0.0748 
     86 H86        32.0053   28.2213   -0.7165 H         1 UNK         0.0940 
     87 H87        30.9108   27.6035    0.4868 H         1 UNK         0.0940 
     88 H88        30.0972   28.1370   -2.4318 H         1 UNK         0.0703 
     89 H89        28.1746   27.1776   -1.8342 H         1 UNK         0.3081 
     90 H90        26.5929   26.6286    1.2655 H         1 UNK         0.0719 
     91 H91        25.3932   28.2269   -1.0485 H         1 UNK         0.0809 
     92 H92        24.4814   27.2571    0.1092 H         1 UNK         0.0809 
     93 H93        25.3810   28.6658    0.6497 H         1 UNK         0.0809 
     94 H94        26.7748   24.8509    0.0106 H         1 UNK         0.2990 
     95 H95        25.4526   23.9709   -2.9635 H         1 UNK         0.0690 
     96 H96        27.4902   22.7455   -3.7269 H         1 UNK         0.0788 
     97 H97        28.5131   23.8140   -2.7645 H         1 UNK         0.0788 
     98 H98        27.6081   24.4479   -4.1320 H         1 UNK         0.0788 
     99 H99        27.1728   22.5041   -1.1787 H         1 UNK         0.2993 
    100 H100       24.5770   21.3024    0.8325 H         1 UNK         0.0949 
    101 H101       26.4661   19.7609    0.8434 H         1 UNK         0.0767 
    102 H102       26.1237   20.1818   -0.8244 H         1 UNK         0.0767 
    103 H103       27.5037   20.9016    0.0037 H         1 UNK         0.0767 
    104 H104       25.6081   21.9230    2.7159 H         1 UNK         0.3013 
    105 H105       30.8333   29.6812    0.5897 H         1 UNK         0.3121 
    106 H106       29.3540   32.1306    0.0711 H         1 UNK         0.0774 
    107 H107       31.4049   33.5656    0.1926 H         1 UNK         0.0815 
    108 H108       32.4306   32.1375    0.1389 H         1 UNK         0.0815 
    109 H109       31.4368   32.5676   -1.2530 H         1 UNK         0.0815 
    110 H110       28.6468   30.4657    1.8247 H         1 UNK         0.2987 
    111 H111       29.7874   29.6506    3.9968 H         1 UNK         0.0949 
    112 H112       26.9340   30.7561    3.8908 H         1 UNK         0.0806 
    113 H113       27.4502   29.1377    3.4217 H         1 UNK         0.0806 
    114 H114       27.5257   29.6260    5.1019 H         1 UNK         0.0806 
    115 H115       28.8900   33.0625    3.8378 H         1 UNK         0.3010 
    116 H116       29.2369   33.7570    6.5807 H         1 UNK         0.0829 
    117 H117       28.1546   35.2670    4.9313 H         1 UNK         0.0813 
    118 H118       29.5316   36.0698    5.6664 H         1 UNK         0.0813 
    119 H119       29.6690   35.4209    4.0382 H         1 UNK         0.0813 
    120 H120       31.5814   33.0162    4.0651 H         1 UNK         0.3038 
    121 H121       33.8571   33.5728    5.9253 H         1 UNK         0.0769 
    122 H122       35.2238   33.8676    3.8768 H         1 UNK         0.0811 
    123 H123       33.8924   35.0111    3.8597 H         1 UNK         0.0811 
    124 H124       33.8225   33.5621    2.8568 H         1 UNK         0.0811 
    125 H125       31.9285   31.2020    5.5307 H         1 UNK         0.3204 
    126 H126       31.8941   29.0209    5.5693 H         1 UNK         0.0748 
    127 H127       33.8164   27.7430    6.4422 H         1 UNK         0.0771 
    128 H128       34.9093   29.0899    6.1235 H         1 UNK         0.0771 
    129 H129       33.6377   29.2419    7.3282 H         1 UNK         0.0771 
    130 H130       34.6675   27.6601    4.5073 H         1 UNK         0.2980 
    131 H131       33.3987   26.7136    2.1682 H         1 UNK         0.0545 
    132 H132       34.0529   26.7707   -0.0921 H         1 UNK         0.3459 
    133 H133       34.9683   28.1302   -0.6882 H         1 UNK         0.3459 
    134 H134       36.3385   26.2738    2.8861 H         1 UNK         0.0616 
    135 H135       35.3359   25.2466    1.8970 H         1 UNK         0.0616 
    136 H136       33.5090   22.9881    4.4058 H         1 UNK         0.0634 
    137 H137       34.2132   23.1332    2.8128 H         1 UNK         0.0634 
@<TRIPOS>BOND
     1    1    2 1    
     2    1   72 1    
     3    1   73 1    
     4    1   74 1    
     5    2    3 2    
     6    2    4 am   BACKBONE|DICT|INTERRES
     7    4    5 1    
     8    4   75 1    
     9    5    6 1    
    10    5   35 1    
    11    5   76 1    
    12    6    7 1    
    13    6   77 1    
    14    6   78 1    
    15    7    8 1    
    16    8    9 1    
    17    8   79 1    
    18    8   80 1    
    19    9   10 ar   
    20    9   14 ar   
    21   10   11 ar   
    22   10   81 1    
    23   11   12 ar   
    24   11   71 1    
    25   12   13 ar   
    26   12   82 1    
    27   13   14 ar   
    28   13   15 1    
    29   14   83 1    
    30   15   16 1    
    31   15   84 1    
    32   15   85 1    
    33   16   17 1    
    34   17   18 1    
    35   17   86 1    
    36   17   87 1    
    37   18   19 1    
    38   18   37 1    
    39   18   88 1    
    40   19   20 am   BACKBONE|DICT|INTERRES
    41   19   89 1    
    42   20   21 2    
    43   20   22 1    
    44   22   23 1    
    45   22   24 1    
    46   22   90 1    
    47   23   91 1    
    48   23   92 1    
    49   23   93 1    
    50   24   25 am   BACKBONE|DICT|INTERRES
    51   24   94 1    
    52   25   26 2    
    53   25   27 1    
    54   27   28 1    
    55   27   29 1    
    56   27   95 1    
    57   28   96 1    
    58   28   97 1    
    59   28   98 1    
    60   29   30 am   BACKBONE|DICT|INTERRES
    61   29   99 1    
    62   30   31 2    
    63   30   32 1    
    64   32   33 1    
    65   32   34 1    
    66   32  100 1    
    67   33  101 1    
    68   33  102 1    
    69   33  103 1    
    70   34   35 am   BACKBONE|DICT|INTERRES
    71   34  104 1    
    72   35   36 2    
    73   37   38 2    
    74   37   39 am   BACKBONE|DICT|INTERRES
    75   39   40 1    
    76   39  105 1    
    77   40   41 1    
    78   40   42 1    
    79   40  106 1    
    80   41  107 1    
    81   41  108 1    
    82   41  109 1    
    83   42   43 2    
    84   42   44 am   BACKBONE|DICT|INTERRES
    85   44   45 1    
    86   44  110 1    
    87   45   46 1    
    88   45   47 1    
    89   45  111 1    
    90   46  112 1    
    91   46  113 1    
    92   46  114 1    
    93   47   48 2    
    94   47   49 am   BACKBONE|DICT|INTERRES
    95   49   50 1    
    96   49  115 1    
    97   50   51 1    
    98   50   52 1    
    99   50  116 1    
   100   51  117 1    
   101   51  118 1    
   102   51  119 1    
   103   52   53 2    
   104   52   54 am   BACKBONE|DICT|INTERRES
   105   54   55 1    
   106   54  120 1    
   107   55   56 1    
   108   55   57 1    
   109   55  121 1    
   110   56  122 1    
   111   56  123 1    
   112   56  124 1    
   113   57   58 2    
   114   57   59 am   BACKBONE|DICT|INTERRES
   115   59   60 1    
   116   59  125 1    
   117   60   61 1    
   118   60   62 1    
   119   60  126 1    
   120   61  127 1    
   121   61  128 1    
   122   61  129 1    
   123   62   63 2    
   124   62   64 am   BACKBONE|DICT|INTERRES
   125   64   65 1    
   126   64  130 1    
   127   65   66 1    
   128   65   69 1    
   129   65  131 1    
   130   66   67 am   BACKBONE|DICT|INTERRES
   131   66   68 2    
   132   67  132 1    
   133   67  133 1    
   134   69   70 1    
   135   69  134 1    
   136   69  135 1    
   137   70   71 1    
   138   71  136 1    
   139   71  137 1    
@<TRIPOS>SUBSTRUCTURE
     1 UNK         1 GROUP             0       ****    0 ROOT    
