@<TRIPOS>MOLECULE
3R136
137   139    1
SMALL
USER_CHARGES


@<TRIPOS>ATOM
      1 CA         28.9066   21.6115    3.5944 C.3       0 UNK        -0.1979 
      2 C          28.8968   22.3196    2.2486 C.2       0 UNK         0.4864 
      3 O          28.6255   23.5172    2.1952 O.2       0 UNK        -0.5359 
      4 N          29.1935   21.5919    1.1645 N.am      1 UNK        -0.4318 
      5 CA         29.2960   22.0600   -0.2256 C.3       1 UNK         0.0824 
      6 C6         30.3893   23.1398   -0.4623 C.3       12 UNK        -0.0944 
      7 S7         32.0565   22.5417   -0.0030 S.3       12 UNK        -0.2672 
      8 C8         32.8819   24.0589    0.5799 C.3       12 UNK         0.0333 
      9 C9         32.8141   24.2185    2.0941 C.ar      12 UNK        -0.0807 
     10 C10        33.9295   23.9530    2.8944 C.ar      12 UNK        -0.0894 
     11 C11        33.8759   24.1507    4.2795 C.ar      12 UNK        -0.0804 
     12 C12        32.6986   24.6330    4.8632 C.ar      12 UNK        -0.0824 
     13 C13        31.5741   24.8941    4.0740 C.ar      12 UNK        -0.0762 
     14 C14        31.6405   24.6687    2.6964 C.ar      12 UNK        -0.0782 
     15 C15        30.2742   25.3857    4.7024 C.3       12 UNK         0.0230 
     16 S16        30.0944   27.2033    4.6957 S.3       12 UNK        -0.2608 
     17 C17        30.2743   27.6416    2.9321 C.3       12 UNK        -0.0989 
     18 CA         29.0788   27.2023    2.0411 C.3       5 UNK         0.0716 
     19 N          27.8118   27.8477    2.4032 N.am      5 UNK        -0.4135 
     20 C          27.5255   29.1550    2.3202 C.2       4 UNK         0.5031 
     21 O          28.3412   30.0088    1.9676 O.2       4 UNK        -0.5229 
     22 CA         26.0718   29.5667    2.6397 C.3       4 UNK         0.0329 
     23 CB         25.7037   30.9379    2.0350 C.3       4 UNK        -0.2001 
     24 N          25.0803   28.5491    2.2554 N.am      4 UNK        -0.4303 
     25 C          24.9106   28.0164    1.0359 C.2       3 UNK         0.5044 
     26 O          25.5438   28.3589    0.0342 O.2       3 UNK        -0.5152 
     27 CA         23.8987   26.8607    0.9314 C.3       3 UNK         0.0319 
     28 CB         22.5787   27.3553    0.3195 C.3       3 UNK        -0.2001 
     29 N          24.4183   25.7468    0.1295 N.am      3 UNK        -0.4354 
     30 C          25.5630   25.0913    0.3719 C.2       2 UNK         0.4964 
     31 O          26.2770   25.3107    1.3540 O.2       2 UNK        -0.5047 
     32 CA         25.9904   24.0446   -0.6694 C.3       2 UNK         0.0288 
     33 CB         25.9980   24.6449   -2.0942 C.3       2 UNK        -0.2113 
     34 N          27.3084   23.5238   -0.2996 N.am      2 UNK        -0.4145 
     35 C          27.9293   22.4610   -0.8255 C.2       1 UNK         0.5006 
     36 O          27.4593   21.7832   -1.7415 O.2       1 UNK        -0.5103 
     37 C          29.4114   27.3184    0.5336 C.2       5 UNK         0.5055 
     38 O          30.5827   27.2130    0.1678 O.2       5 UNK        -0.5220 
     39 N          28.3932   27.5407   -0.3148 N.am      6 UNK        -0.4450 
     40 CA         28.4915   27.8311   -1.7517 C.3       6 UNK         0.0367 
     41 CB         29.1728   26.6723   -2.5169 C.3       6 UNK        -0.1929 
     42 C          29.1511   29.1952   -2.0520 C.2       6 UNK         0.5070 
     43 O          29.6298   29.4020   -3.1685 O.2       6 UNK        -0.5237 
     44 N          29.1677   30.1037   -1.0683 N.am      7 UNK        -0.4739 
     45 CA         29.7865   31.4228   -1.1447 C.3       7 UNK         0.0276 
     46 CB         31.2998   31.3045   -0.8515 C.3       7 UNK        -0.1927 
     47 C          29.0209   32.3621   -0.2015 C.2       7 UNK         0.5013 
     48 O          27.8341   32.6020   -0.4295 O.2       7 UNK        -0.5193 
     49 N          29.6953   32.8606    0.8393 N.am      8 UNK        -0.4253 
     50 CA         29.1281   33.6672    1.9162 C.3       8 UNK         0.0242 
     51 CB         29.2895   35.1651    1.5898 C.3       8 UNK        -0.2000 
     52 C          29.8069   33.2456    3.2270 C.2       8 UNK         0.4948 
     53 O          30.4328   34.0754    3.8893 O.2       8 UNK        -0.5275 
     54 N          29.6945   31.9441    3.5336 N.am      9 UNK        -0.4246 
     55 CA         30.3852   31.1756    4.5776 C.3       9 UNK         0.0261 
     56 CB         30.2649   31.8264    5.9713 C.3       9 UNK        -0.1959 
     57 C          31.8499   30.8727    4.2074 C.2       9 UNK         0.5033 
     58 O          32.4519   31.5664    3.3837 O.2       9 UNK        -0.5390 
     59 N          32.3935   29.8181    4.8213 N.am      10 UNK        -0.4215 
     60 CA         33.7592   29.3315    4.6525 C.3       10 UNK         0.0240 
     61 CB         33.8742   28.4866    3.3681 C.3       10 UNK        -0.1982 
     62 C          34.1227   28.4916    5.8814 C.2       10 UNK         0.4970 
     63 O          33.2262   28.0644    6.6144 O.2       10 UNK        -0.4916 
     64 N          35.4282   28.2620    6.0671 N.am      11 UNK        -0.4279 
     65 CA         36.0139   27.4098    7.1191 C.3       11 UNK         0.1003 
     66 C          35.8039   27.9225    8.5784 C.2       11 UNK         0.5709 
     67 N          35.4805   29.1929    8.7909 N.am      11 UNK        -0.7358 
     68 O          35.9720   27.1729    9.5380 O.2       11 UNK        -0.4999 
     69 C69        35.6456   25.9070    6.9438 C.3       12 UNK        -0.0954 
     70 S70        36.2000   25.2361    5.3398 S.3       12 UNK        -0.2268 
     71 C71        35.0853   23.8130    5.1395 C.3       12 UNK         0.0203 
     72 H72        27.9360   21.7143    4.0787 H         1 UNK         0.0888 
     73 H73        29.1278   20.5490    3.4958 H         1 UNK         0.0888 
     74 H74        29.6609   22.0574    4.2423 H         1 UNK         0.0888 
     75 H75        29.3859   20.6075    1.2860 H         1 UNK         0.3017 
     76 H76        29.6088   21.1787   -0.7887 H         1 UNK         0.0873 
     77 H77        30.1564   24.0568    0.0785 H         1 UNK         0.0745 
     78 H78        30.4231   23.4186   -1.5172 H         1 UNK         0.0745 
     79 H79        32.4463   24.9333    0.0933 H         1 UNK         0.0705 
     80 H80        33.9236   24.0267    0.2572 H         1 UNK         0.0705 
     81 H81        34.8430   23.5941    2.4400 H         1 UNK         0.1334 
     82 H82        32.6531   24.7953    5.9313 H         1 UNK         0.1417 
     83 H83        30.7778   24.8650    2.0808 H         1 UNK         0.1562 
     84 H84        30.2127   25.0394    5.7350 H         1 UNK         0.0748 
     85 H85        29.4187   24.9416    4.1951 H         1 UNK         0.0748 
     86 H86        31.2162   27.2275    2.5794 H         1 UNK         0.0940 
     87 H87        30.4158   28.7178    2.8538 H         1 UNK         0.0940 
     88 H88        28.9061   26.1400    2.2035 H         1 UNK         0.0703 
     89 H89        27.0697   27.2086    2.6563 H         1 UNK         0.3081 
     90 H90        26.0167   29.6580    3.7254 H         1 UNK         0.0719 
     91 H91        24.6754   31.2134    2.2682 H         1 UNK         0.0809 
     92 H92        25.8159   30.9446    0.9499 H         1 UNK         0.0809 
     93 H93        26.3459   31.7251    2.4304 H         1 UNK         0.0809 
     94 H94        24.5149   28.1885    3.0125 H         1 UNK         0.2990 
     95 H95        23.6955   26.4754    1.9328 H         1 UNK         0.0690 
     96 H96        21.8330   26.5608    0.2848 H         1 UNK         0.0788 
     97 H97        22.7208   27.7289   -0.6957 H         1 UNK         0.0788 
     98 H98        22.1554   28.1696    0.9094 H         1 UNK         0.0788 
     99 H99        23.9069   25.5262   -0.7122 H         1 UNK         0.2993 
    100 H100       25.2790   23.2175   -0.6266 H         1 UNK         0.0949 
    101 H101       26.5170   25.6015   -2.1242 H         1 UNK         0.0767 
    102 H102       26.4693   23.9859   -2.8225 H         1 UNK         0.0767 
    103 H103       24.9824   24.8228   -2.4488 H         1 UNK         0.0767 
    104 H104       27.7031   23.9383    0.5452 H         1 UNK         0.3013 
    105 H105       27.4580   27.6397    0.0692 H         1 UNK         0.3121 
    106 H106       27.4633   27.9074   -2.1079 H         1 UNK         0.0774 
    107 H107       28.9832   26.7516   -3.5877 H         1 UNK         0.0815 
    108 H108       30.2549   26.6811   -2.3823 H         1 UNK         0.0815 
    109 H109       28.8117   25.6978   -2.1910 H         1 UNK         0.0815 
    110 H110       28.7221   29.8859   -0.1831 H         1 UNK         0.2987 
    111 H111       29.6578   31.8256   -2.1518 H         1 UNK         0.0949 
    112 H112       31.7930   30.6793   -1.5962 H         1 UNK         0.0806 
    113 H113       31.7898   32.2785   -0.8851 H         1 UNK         0.0806 
    114 H114       31.4940   30.8588    0.1255 H         1 UNK         0.0806 
    115 H115       30.6592   32.5821    0.9678 H         1 UNK         0.3010 
    116 H116       28.0635   33.4491    2.0244 H         1 UNK         0.0829 
    117 H117       28.7672   35.4276    0.6697 H         1 UNK         0.0813 
    118 H118       28.8753   35.7849    2.3859 H         1 UNK         0.0813 
    119 H119       30.3380   35.4405    1.4704 H         1 UNK         0.0813 
    120 H120       29.1769   31.3612    2.8760 H         1 UNK         0.3038 
    121 H121       29.8561   30.2233    4.6199 H         1 UNK         0.0769 
    122 H122       30.8712   32.7285    6.0559 H         1 UNK         0.0811 
    123 H123       29.2324   32.0912    6.1993 H         1 UNK         0.0811 
    124 H124       30.6024   31.1421    6.7504 H         1 UNK         0.0811 
    125 H125       31.8616   29.2915    5.5060 H         1 UNK         0.3204 
    126 H126       34.4358   30.1869    4.5972 H         1 UNK         0.0748 
    127 H127       34.9128   28.2230    3.1658 H         1 UNK         0.0771 
    128 H128       33.3201   27.5512    3.4545 H         1 UNK         0.0771 
    129 H129       33.5006   29.0213    2.4947 H         1 UNK         0.0771 
    130 H130       36.0902   28.6631    5.4190 H         1 UNK         0.2980 
    131 H131       37.0919   27.4862    6.9743 H         1 UNK         0.0545 
    132 H132       35.3586   29.5190    9.7365 H         1 UNK         0.3459 
    133 H133       35.3511   29.8242    8.0172 H         1 UNK         0.3459 
    134 H134       36.1139   25.2995    7.7199 H         1 UNK         0.0616 
    135 H135       34.5701   25.7625    7.0512 H         1 UNK         0.0616 
    136 H136       34.7692   23.4420    6.1157 H         1 UNK         0.0634 
    137 H137       35.6463   22.9987    4.6784 H         1 UNK         0.0634 
@<TRIPOS>BOND
     1    1    2 1    
     2    1   72 1    
     3    1   73 1    
     4    1   74 1    
     5    2    3 2    
     6    2    4 am   BACKBONE|DICT|INTERRES
     7    4    5 1    
     8    4   75 1    
     9    5    6 1    
    10    5   35 1    
    11    5   76 1    
    12    6    7 1    
    13    6   77 1    
    14    6   78 1    
    15    7    8 1    
    16    8    9 1    
    17    8   79 1    
    18    8   80 1    
    19    9   10 ar   
    20    9   14 ar   
    21   10   11 ar   
    22   10   81 1    
    23   11   12 ar   
    24   11   71 1    
    25   12   13 ar   
    26   12   82 1    
    27   13   14 ar   
    28   13   15 1    
    29   14   83 1    
    30   15   16 1    
    31   15   84 1    
    32   15   85 1    
    33   16   17 1    
    34   17   18 1    
    35   17   86 1    
    36   17   87 1    
    37   18   19 1    
    38   18   37 1    
    39   18   88 1    
    40   19   20 am   BACKBONE|DICT|INTERRES
    41   19   89 1    
    42   20   21 2    
    43   20   22 1    
    44   22   23 1    
    45   22   24 1    
    46   22   90 1    
    47   23   91 1    
    48   23   92 1    
    49   23   93 1    
    50   24   25 am   BACKBONE|DICT|INTERRES
    51   24   94 1    
    52   25   26 2    
    53   25   27 1    
    54   27   28 1    
    55   27   29 1    
    56   27   95 1    
    57   28   96 1    
    58   28   97 1    
    59   28   98 1    
    60   29   30 am   BACKBONE|DICT|INTERRES
    61   29   99 1    
    62   30   31 2    
    63   30   32 1    
    64   32   33 1    
    65   32   34 1    
    66   32  100 1    
    67   33  101 1    
    68   33  102 1    
    69   33  103 1    
    70   34   35 am   BACKBONE|DICT|INTERRES
    71   34  104 1    
    72   35   36 2    
    73   37   38 2    
    74   37   39 am   BACKBONE|DICT|INTERRES
    75   39   40 1    
    76   39  105 1    
    77   40   41 1    
    78   40   42 1    
    79   40  106 1    
    80   41  107 1    
    81   41  108 1    
    82   41  109 1    
    83   42   43 2    
    84   42   44 am   BACKBONE|DICT|INTERRES
    85   44   45 1    
    86   44  110 1    
    87   45   46 1    
    88   45   47 1    
    89   45  111 1    
    90   46  112 1    
    91   46  113 1    
    92   46  114 1    
    93   47   48 2    
    94   47   49 am   BACKBONE|DICT|INTERRES
    95   49   50 1    
    96   49  115 1    
    97   50   51 1    
    98   50   52 1    
    99   50  116 1    
   100   51  117 1    
   101   51  118 1    
   102   51  119 1    
   103   52   53 2    
   104   52   54 am   BACKBONE|DICT|INTERRES
   105   54   55 1    
   106   54  120 1    
   107   55   56 1    
   108   55   57 1    
   109   55  121 1    
   110   56  122 1    
   111   56  123 1    
   112   56  124 1    
   113   57   58 2    
   114   57   59 am   BACKBONE|DICT|INTERRES
   115   59   60 1    
   116   59  125 1    
   117   60   61 1    
   118   60   62 1    
   119   60  126 1    
   120   61  127 1    
   121   61  128 1    
   122   61  129 1    
   123   62   63 2    
   124   62   64 am   BACKBONE|DICT|INTERRES
   125   64   65 1    
   126   64  130 1    
   127   65   66 1    
   128   65   69 1    
   129   65  131 1    
   130   66   67 am   BACKBONE|DICT|INTERRES
   131   66   68 2    
   132   67  132 1    
   133   67  133 1    
   134   69   70 1    
   135   69  134 1    
   136   69  135 1    
   137   70   71 1    
   138   71  136 1    
   139   71  137 1    
@<TRIPOS>SUBSTRUCTURE
     1 UNK         1 GROUP             0       ****    0 ROOT    
