@<TRIPOS>MOLECULE
3R136
137   139    1
SMALL
USER_CHARGES


@<TRIPOS>ATOM
      1 CA         30.1732   26.1737   -2.8418 C.3       0 UNK        -0.1979 
      2 C          29.4304   25.5096   -1.6924 C.2       0 UNK         0.4864 
      3 O          28.8140   26.2047   -0.8879 O.2       0 UNK        -0.5359 
      4 N          29.4780   24.1757   -1.6226 N.am      1 UNK        -0.4318 
      5 CA         28.8031   23.3402   -0.6261 C.3       1 UNK         0.0824 
      6 C6         29.7998   22.7806    0.4221 C.3       12 UNK        -0.0944 
      7 S7         30.3348   24.0787    1.5854 S.3       12 UNK        -0.2672 
      8 C8         29.4997   23.5508    3.1129 C.3       12 UNK         0.0333 
      9 C9         29.3122   24.7182    4.0683 C.ar      12 UNK        -0.0807 
     10 C10        30.4088   25.2631    4.7443 C.ar      12 UNK        -0.0894 
     11 C11        30.2370   26.3378    5.6222 C.ar      12 UNK        -0.0804 
     12 C12        28.9592   26.8718    5.8128 C.ar      12 UNK        -0.0824 
     13 C13        27.8556   26.3335    5.1439 C.ar      12 UNK        -0.0762 
     14 C14        28.0365   25.2484    4.2828 C.ar      12 UNK        -0.0782 
     15 C15        26.4708   26.9222    5.3653 C.3       12 UNK         0.0230 
     16 S16        26.1966   28.3805    4.3123 S.3       12 UNK        -0.2608 
     17 C17        25.5007   27.6517    2.7872 C.3       12 UNK        -0.0989 
     18 CA         26.5140   27.2227    1.6907 C.3       5 UNK         0.0716 
     19 N          25.8290   26.9129    0.4397 N.am      5 UNK        -0.4135 
     20 C          25.4417   25.6924    0.0619 C.2       4 UNK         0.5031 
     21 O          25.5983   24.6741    0.7462 O.2       4 UNK        -0.5229 
     22 CA         24.7651   25.5815   -1.3124 C.3       4 UNK         0.0329 
     23 CB         25.7848   25.7474   -2.4562 C.3       4 UNK        -0.2001 
     24 N          24.1436   24.2654   -1.3803 N.am      4 UNK        -0.4303 
     25 C          23.2651   23.8086   -2.2789 C.2       3 UNK         0.5044 
     26 O          22.8032   24.4892   -3.1965 O.2       3 UNK        -0.5152 
     27 CA         22.8368   22.3342   -2.1046 C.3       3 UNK         0.0319 
     28 CB         22.2554   21.7130   -3.3933 C.3       3 UNK        -0.2001 
     29 N          23.9115   21.5022   -1.5363 N.am      3 UNK        -0.4354 
     30 C          25.1031   21.2339   -2.0945 C.2       2 UNK         0.4964 
     31 O          25.4093   21.5283   -3.2507 O.2       2 UNK        -0.5047 
     32 CA         26.1408   20.5797   -1.1665 C.3       2 UNK         0.0288 
     33 CB         26.8299   19.3574   -1.8102 C.3       2 UNK        -0.2113 
     34 N          27.1001   21.5860   -0.6852 N.am      2 UNK        -0.4145 
     35 C          28.0757   22.2057   -1.3707 C.2       1 UNK         0.5006 
     36 O          28.4229   21.9171   -2.5199 O.2       1 UNK        -0.5103 
     37 C          27.5984   28.2623    1.3649 C.2       5 UNK         0.5055 
     38 O          27.3285   29.2104    0.6204 O.2       5 UNK        -0.5220 
     39 N          28.8041   28.0403    1.9003 N.am      6 UNK        -0.4450 
     40 CA         29.9894   28.8577    1.6597 C.3       6 UNK         0.0367 
     41 CB         31.2344   28.0012    1.9417 C.3       6 UNK        -0.1929 
     42 C          29.9915   30.1384    2.5108 C.2       6 UNK         0.5070 
     43 O          29.3276   30.2045    3.5478 O.2       6 UNK        -0.5237 
     44 N          30.7577   31.1364    2.0548 N.am      7 UNK        -0.4739 
     45 CA         30.9871   32.3943    2.7674 C.3       7 UNK         0.0276 
     46 CB         31.5657   33.4240    1.7828 C.3       7 UNK        -0.1927 
     47 C          31.9493   32.1978    3.9488 C.2       7 UNK         0.5013 
     48 O          32.8360   31.3433    3.8779 O.2       7 UNK        -0.5193 
     49 N          31.8153   33.0447    4.9793 N.am      8 UNK        -0.4253 
     50 CA         32.6345   33.0298    6.1998 C.3       8 UNK         0.0242 
     51 CB         32.1717   34.1523    7.1420 C.3       8 UNK        -0.2000 
     52 C          34.1516   33.1285    5.9520 C.2       8 UNK         0.4948 
     53 O          34.9251   32.5179    6.6894 O.2       8 UNK        -0.5275 
     54 N          34.5440   33.8514    4.8934 N.am      9 UNK        -0.4246 
     55 CA         35.9256   33.9647    4.4204 C.3       9 UNK         0.0261 
     56 CB         36.0044   35.0726    3.3573 C.3       9 UNK        -0.1959 
     57 C          36.5051   32.6479    3.8671 C.2       9 UNK         0.5033 
     58 O          37.7236   32.4723    3.9125 O.2       9 UNK        -0.5390 
     59 N          35.6434   31.7551    3.3586 N.am      10 UNK        -0.4215 
     60 CA         36.0171   30.4173    2.8990 C.3       10 UNK         0.0240 
     61 CB         35.1102   29.9947    1.7313 C.3       10 UNK        -0.1982 
     62 C          35.9465   29.4003    4.0481 C.2       10 UNK         0.4970 
     63 O          36.8222   28.5385    4.1348 O.2       10 UNK        -0.4916 
     64 N          34.9244   29.5196    4.9081 N.am      11 UNK        -0.4279 
     65 CA         34.7523   28.6961    6.1162 C.3       11 UNK         0.1003 
     66 C          35.8784   28.8914    7.1693 C.2       11 UNK         0.5709 
     67 N          36.3405   30.1123    7.4096 N.am      11 UNK        -0.7358 
     68 O          36.3375   27.9233    7.7709 O.2       11 UNK        -0.4999 
     69 C69        33.3642   28.9009    6.7733 C.3       12 UNK        -0.0954 
     70 S70        31.9838   28.4822    5.6604 S.3       12 UNK        -0.2268 
     71 C71        31.4236   26.9114    6.3820 C.3       12 UNK         0.0203 
     72 H72        29.4761   26.7361   -3.4622 H         1 UNK         0.0888 
     73 H73        30.6815   25.4460   -3.4743 H         1 UNK         0.0888 
     74 H74        30.9196   26.8659   -2.4531 H         1 UNK         0.0888 
     75 H75        29.9233   23.6481   -2.3619 H         1 UNK         0.3017 
     76 H76        28.0356   23.9244   -0.1145 H         1 UNK         0.0873 
     77 H77        29.3637   21.9559    0.9889 H         1 UNK         0.0745 
     78 H78        30.6829   22.3669   -0.0685 H         1 UNK         0.0745 
     79 H79        28.5319   23.1102    2.8679 H         1 UNK         0.0705 
     80 H80        30.0857   22.7663    3.5940 H         1 UNK         0.0705 
     81 H81        31.3951   24.8493    4.5835 H         1 UNK         0.1334 
     82 H82        28.8249   27.7115    6.4815 H         1 UNK         0.1417 
     83 H83        27.1827   24.8194    3.7752 H         1 UNK         0.1562 
     84 H84        26.3692   27.2235    6.4090 H         1 UNK         0.0748 
     85 H85        25.6951   26.1748    5.1922 H         1 UNK         0.0748 
     86 H86        24.8207   28.3993    2.3745 H         1 UNK         0.0940 
     87 H87        24.8677   26.8035    3.0522 H         1 UNK         0.0940 
     88 H88        27.0318   26.3250    2.0269 H         1 UNK         0.0703 
     89 H89        25.7462   27.6934   -0.1985 H         1 UNK         0.3081 
     90 H90        23.9905   26.3475   -1.3852 H         1 UNK         0.0719 
     91 H91        26.5272   24.9488   -2.4465 H         1 UNK         0.0809 
     92 H92        25.2972   25.7338   -3.4309 H         1 UNK         0.0809 
     93 H93        26.3208   26.6941   -2.3792 H         1 UNK         0.0809 
     94 H94        24.4352   23.6592   -0.6227 H         1 UNK         0.2990 
     95 H95        22.0381   22.3435   -1.3614 H         1 UNK         0.0690 
     96 H96        21.9719   20.6720   -3.2396 H         1 UNK         0.0788 
     97 H97        22.9647   21.7501   -4.2205 H         1 UNK         0.0788 
     98 H98        21.3603   22.2478   -3.7133 H         1 UNK         0.0788 
     99 H99        23.7561   21.1997   -0.5839 H         1 UNK         0.2993 
    100 H100       25.6207   20.2137   -0.2794 H         1 UNK         0.0949 
    101 H101       26.1020   18.5723   -2.0180 H         1 UNK         0.0767 
    102 H102       27.3116   19.6023   -2.7571 H         1 UNK         0.0767 
    103 H103       27.5855   18.9336   -1.1487 H         1 UNK         0.0767 
    104 H104       26.9163   21.9206    0.2512 H         1 UNK         0.3013 
    105 H105       28.9175   27.2733    2.5479 H         1 UNK         0.3121 
    106 H106       30.0019   29.1458    0.6060 H         1 UNK         0.0774 
    107 H107       31.2827   27.1442    1.2693 H         1 UNK         0.0815 
    108 H108       31.2373   27.6215    2.9630 H         1 UNK         0.0815 
    109 H109       32.1510   28.5739    1.8037 H         1 UNK         0.0815 
    110 H110       31.3033   30.9881    1.2186 H         1 UNK         0.2987 
    111 H111       30.0304   32.7611    3.1462 H         1 UNK         0.0949 
    112 H112       32.5303   33.1058    1.3844 H         1 UNK         0.0806 
    113 H113       30.8932   33.5885    0.9405 H         1 UNK         0.0806 
    114 H114       31.7156   34.3902    2.2663 H         1 UNK         0.0806 
    115 H115       31.0751   33.7314    4.9462 H         1 UNK         0.3010 
    116 H116       32.4492   32.0758    6.6954 H         1 UNK         0.0829 
    117 H117       31.1242   34.0327    7.4192 H         1 UNK         0.0813 
    118 H118       32.7506   34.1485    8.0669 H         1 UNK         0.0813 
    119 H119       32.2902   35.1370    6.6879 H         1 UNK         0.0813 
    120 H120       33.8359   34.3241    4.3511 H         1 UNK         0.3038 
    121 H121       36.5449   34.2607    5.2700 H         1 UNK         0.0769 
    122 H122       35.3870   34.8436    2.4876 H         1 UNK         0.0811 
    123 H123       37.0287   35.2018    3.0042 H         1 UNK         0.0811 
    124 H124       35.6795   36.0328    3.7584 H         1 UNK         0.0811 
    125 H125       34.6470   31.9394    3.4209 H         1 UNK         0.3204 
    126 H126       37.0450   30.4330    2.5300 H         1 UNK         0.0748 
    127 H127       35.1985   30.6854    0.8927 H         1 UNK         0.0771 
    128 H128       35.3819   29.0035    1.3660 H         1 UNK         0.0771 
    129 H129       34.0615   29.9574    2.0236 H         1 UNK         0.0771 
    130 H130       34.2025   30.2092    4.7260 H         1 UNK         0.2980 
    131 H131       34.8070   27.6541    5.7947 H         1 UNK         0.0545 
    132 H132       37.0736   30.2358    8.0888 H         1 UNK         0.3459 
    133 H133       35.9047   30.9268    6.9850 H         1 UNK         0.3459 
    134 H134       33.2783   28.3027    7.6824 H         1 UNK         0.0616 
    135 H135       33.2451   29.9382    7.0869 H         1 UNK         0.0616 
    136 H136       31.1437   27.0716    7.4243 H         1 UNK         0.0634 
    137 H137       32.2542   26.2038    6.3875 H         1 UNK         0.0634 
@<TRIPOS>BOND
     1    1    2 1    
     2    1   72 1    
     3    1   73 1    
     4    1   74 1    
     5    2    3 2    
     6    2    4 am   BACKBONE|DICT|INTERRES
     7    4    5 1    
     8    4   75 1    
     9    5    6 1    
    10    5   35 1    
    11    5   76 1    
    12    6    7 1    
    13    6   77 1    
    14    6   78 1    
    15    7    8 1    
    16    8    9 1    
    17    8   79 1    
    18    8   80 1    
    19    9   10 ar   
    20    9   14 ar   
    21   10   11 ar   
    22   10   81 1    
    23   11   12 ar   
    24   11   71 1    
    25   12   13 ar   
    26   12   82 1    
    27   13   14 ar   
    28   13   15 1    
    29   14   83 1    
    30   15   16 1    
    31   15   84 1    
    32   15   85 1    
    33   16   17 1    
    34   17   18 1    
    35   17   86 1    
    36   17   87 1    
    37   18   19 1    
    38   18   37 1    
    39   18   88 1    
    40   19   20 am   BACKBONE|DICT|INTERRES
    41   19   89 1    
    42   20   21 2    
    43   20   22 1    
    44   22   23 1    
    45   22   24 1    
    46   22   90 1    
    47   23   91 1    
    48   23   92 1    
    49   23   93 1    
    50   24   25 am   BACKBONE|DICT|INTERRES
    51   24   94 1    
    52   25   26 2    
    53   25   27 1    
    54   27   28 1    
    55   27   29 1    
    56   27   95 1    
    57   28   96 1    
    58   28   97 1    
    59   28   98 1    
    60   29   30 am   BACKBONE|DICT|INTERRES
    61   29   99 1    
    62   30   31 2    
    63   30   32 1    
    64   32   33 1    
    65   32   34 1    
    66   32  100 1    
    67   33  101 1    
    68   33  102 1    
    69   33  103 1    
    70   34   35 am   BACKBONE|DICT|INTERRES
    71   34  104 1    
    72   35   36 2    
    73   37   38 2    
    74   37   39 am   BACKBONE|DICT|INTERRES
    75   39   40 1    
    76   39  105 1    
    77   40   41 1    
    78   40   42 1    
    79   40  106 1    
    80   41  107 1    
    81   41  108 1    
    82   41  109 1    
    83   42   43 2    
    84   42   44 am   BACKBONE|DICT|INTERRES
    85   44   45 1    
    86   44  110 1    
    87   45   46 1    
    88   45   47 1    
    89   45  111 1    
    90   46  112 1    
    91   46  113 1    
    92   46  114 1    
    93   47   48 2    
    94   47   49 am   BACKBONE|DICT|INTERRES
    95   49   50 1    
    96   49  115 1    
    97   50   51 1    
    98   50   52 1    
    99   50  116 1    
   100   51  117 1    
   101   51  118 1    
   102   51  119 1    
   103   52   53 2    
   104   52   54 am   BACKBONE|DICT|INTERRES
   105   54   55 1    
   106   54  120 1    
   107   55   56 1    
   108   55   57 1    
   109   55  121 1    
   110   56  122 1    
   111   56  123 1    
   112   56  124 1    
   113   57   58 2    
   114   57   59 am   BACKBONE|DICT|INTERRES
   115   59   60 1    
   116   59  125 1    
   117   60   61 1    
   118   60   62 1    
   119   60  126 1    
   120   61  127 1    
   121   61  128 1    
   122   61  129 1    
   123   62   63 2    
   124   62   64 am   BACKBONE|DICT|INTERRES
   125   64   65 1    
   126   64  130 1    
   127   65   66 1    
   128   65   69 1    
   129   65  131 1    
   130   66   67 am   BACKBONE|DICT|INTERRES
   131   66   68 2    
   132   67  132 1    
   133   67  133 1    
   134   69   70 1    
   135   69  134 1    
   136   69  135 1    
   137   70   71 1    
   138   71  136 1    
   139   71  137 1    
@<TRIPOS>SUBSTRUCTURE
     1 UNK         1 GROUP             0       ****    0 ROOT    
