@<TRIPOS>MOLECULE
3R136
137   139    1
SMALL
USER_CHARGES


@<TRIPOS>ATOM
      1 CA         28.8953   26.8560   -3.9790 C.3       0 UNK        -0.1979 
      2 C          28.5170   26.2592   -2.6323 C.2       0 UNK         0.4864 
      3 O          27.9307   26.9569   -1.8028 O.2       0 UNK        -0.5359 
      4 N          28.8573   24.9826   -2.4082 N.am      1 UNK        -0.4318 
      5 CA         28.5296   24.2395   -1.1914 C.3       1 UNK         0.0824 
      6 C6         29.5076   23.0599   -0.9561 C.3       12 UNK        -0.0944 
      7 S7         29.4481   22.4459    0.7654 S.3       12 UNK        -0.2672 
      8 C8         31.2034   22.3116    1.2298 C.3       12 UNK         0.0333 
      9 C9         31.7654   23.6156    1.7799 C.ar      12 UNK        -0.0807 
     10 C10        31.8805   23.8156    3.1619 C.ar      12 UNK        -0.0894 
     11 C11        32.4541   24.9901    3.6645 C.ar      12 UNK        -0.0804 
     12 C12        32.9054   25.9666    2.7745 C.ar      12 UNK        -0.0824 
     13 C13        32.7487   25.7992    1.3979 C.ar      12 UNK        -0.0762 
     14 C14        32.2025   24.6134    0.9051 C.ar      12 UNK        -0.0782 
     15 C15        33.1325   26.9163    0.4430 C.3       12 UNK         0.0230 
     16 S16        31.6544   27.7087   -0.2688 S.3       12 UNK        -0.2608 
     17 C17        30.7417   28.2502    1.2178 C.3       12 UNK        -0.0989 
     18 CA         29.3669   27.5326    1.3517 C.3       5 UNK         0.0716 
     19 N          29.2988   26.5684    2.4611 N.am      5 UNK        -0.4135 
     20 C          28.2650   25.7324    2.6383 C.2       4 UNK         0.5031 
     21 O          27.3338   25.6299    1.8336 O.2       4 UNK        -0.5229 
     22 CA         28.2292   24.8834    3.9177 C.3       4 UNK         0.0329 
     23 CB         27.6665   25.6980    5.0945 C.3       4 UNK        -0.2001 
     24 N          27.3292   23.7650    3.6657 N.am      4 UNK        -0.4303 
     25 C          27.5591   22.4687    3.8799 C.2       3 UNK         0.5044 
     26 O          28.5128   22.0386    4.5293 O.2       3 UNK        -0.5152 
     27 CA         26.5883   21.4729    3.2091 C.3       3 UNK         0.0319 
     28 CB         25.4681   21.0349    4.1732 C.3       3 UNK        -0.2001 
     29 N          26.0646   21.9363    1.9088 N.am      3 UNK        -0.4354 
     30 C          25.1664   22.9014    1.6518 C.2       2 UNK         0.4964 
     31 O          24.5435   23.5114    2.5211 O.2       2 UNK        -0.5047 
     32 CA         25.0646   23.3419    0.1843 C.3       2 UNK         0.0288 
     33 CB         23.9259   24.3462   -0.0763 C.3       2 UNK        -0.2113 
     34 N          26.3440   23.9614   -0.1424 N.am      2 UNK        -0.4145 
     35 C          27.0706   23.7437   -1.2402 C.2       1 UNK         0.5006 
     36 O          26.6650   23.1257   -2.2282 O.2       1 UNK        -0.5103 
     37 C          28.2345   28.5701    1.4635 C.2       5 UNK         0.5055 
     38 O          28.0071   29.1037    2.5522 O.2       5 UNK        -0.5220 
     39 N          27.5871   28.8646    0.3290 N.am      6 UNK        -0.4450 
     40 CA         26.5404   29.8819    0.2082 C.3       6 UNK         0.0367 
     41 CB         25.9229   29.8090   -1.1974 C.3       6 UNK        -0.1929 
     42 C          27.0309   31.3106    0.5106 C.2       6 UNK         0.5070 
     43 O          26.2581   32.1078    1.0437 O.2       6 UNK        -0.5237 
     44 N          28.2959   31.6060    0.1813 N.am      7 UNK        -0.4739 
     45 CA         28.9463   32.8912    0.4253 C.3       7 UNK         0.0276 
     46 CB         28.4223   33.9568   -0.5628 C.3       7 UNK        -0.1927 
     47 C          30.4687   32.7180    0.3344 C.2       7 UNK         0.5013 
     48 O          31.0480   32.9873   -0.7198 O.2       7 UNK        -0.5193 
     49 N          31.0950   32.2675    1.4282 N.am      8 UNK        -0.4253 
     50 CA         32.5487   32.2307    1.5869 C.3       8 UNK         0.0242 
     51 CB         33.1458   30.9558    0.9632 C.3       8 UNK        -0.2000 
     52 C          32.8794   32.2984    3.0784 C.2       8 UNK         0.4948 
     53 O          32.1931   31.6606    3.8821 O.2       8 UNK        -0.5275 
     54 N          33.9605   33.0128    3.4187 N.am      9 UNK        -0.4246 
     55 CA         34.4598   33.1980    4.7890 C.3       9 UNK         0.0261 
     56 CB         35.5948   34.2355    4.7747 C.3       9 UNK        -0.1959 
     57 C          34.9240   31.9021    5.4827 C.2       9 UNK         0.5033 
     58 O          35.0264   31.8796    6.7097 O.2       9 UNK        -0.5390 
     59 N          35.1762   30.8475    4.6950 N.am      10 UNK        -0.4215 
     60 CA         35.4929   29.4955    5.1565 C.3       10 UNK         0.0240 
     61 CB         35.9299   28.6471    3.9499 C.3       10 UNK        -0.1982 
     62 C          34.3381   28.8019    5.9049 C.2       10 UNK         0.4970 
     63 O          34.6139   27.8959    6.6919 O.2       10 UNK        -0.4916 
     64 N          33.0898   29.2186    5.6495 N.am      11 UNK        -0.4279 
     65 CA         31.8788   28.6640    6.2747 C.3       11 UNK         0.1003 
     66 C          30.9113   29.7539    6.8144 C.2       11 UNK         0.5709 
     67 N          30.9304   30.9829    6.3120 N.am      11 UNK        -0.7358 
     68 O          30.1346   29.4819    7.7266 O.2       11 UNK        -0.4999 
     69 C69        31.1601   27.6634    5.3221 C.3       12 UNK        -0.0954 
     70 S70        31.1530   25.9475    5.9459 S.3       12 UNK        -0.2268 
     71 C71        32.6206   25.2008    5.1638 C.3       12 UNK         0.0203 
     72 H72        28.0032   27.2076   -4.4964 H         1 UNK         0.0888 
     73 H73        29.5640   27.7045   -3.8359 H         1 UNK         0.0888 
     74 H74        29.3975   26.1321   -4.6204 H         1 UNK         0.0888 
     75 H75        29.3002   24.4493   -3.1427 H         1 UNK         0.3017 
     76 H76        28.6397   24.9258   -0.3522 H         1 UNK         0.0873 
     77 H77        30.5248   23.3702   -1.1881 H         1 UNK         0.0745 
     78 H78        29.2986   22.2293   -1.6335 H         1 UNK         0.0745 
     79 H79        31.7909   21.9765    0.3737 H         1 UNK         0.0705 
     80 H80        31.2968   21.5261    1.9813 H         1 UNK         0.0705 
     81 H81        31.5372   23.0514    3.8465 H         1 UNK         0.1334 
     82 H82        33.3572   26.8712    3.1560 H         1 UNK         0.1417 
     83 H83        32.1108   24.4825   -0.1628 H         1 UNK         0.1562 
     84 H84        33.7462   26.5137   -0.3640 H         1 UNK         0.0748 
     85 H85        33.7398   27.6712    0.9447 H         1 UNK         0.0748 
     86 H86        30.6335   29.3325    1.1196 H         1 UNK         0.0940 
     87 H87        31.3493   28.1242    2.1106 H         1 UNK         0.0940 
     88 H88        29.1855   26.9595    0.4439 H         1 UNK         0.0703 
     89 H89        30.0350   26.5998    3.1495 H         1 UNK         0.3081 
     90 H90        29.2360   24.5268    4.1402 H         1 UNK         0.0719 
     91 H91        27.6711   25.1130    6.0143 H         1 UNK         0.0809 
     92 H92        26.6412   26.0197    4.9069 H         1 UNK         0.0809 
     93 H93        28.2548   26.5955    5.2785 H         1 UNK         0.0809 
     94 H94        26.5136   24.0079    3.1139 H         1 UNK         0.2990 
     95 H95        27.1791   20.5851    2.9771 H         1 UNK         0.0690 
     96 H96        24.7978   20.3154    3.7032 H         1 UNK         0.0788 
     97 H97        24.8697   21.8780    4.5190 H         1 UNK         0.0788 
     98 H98        25.8882   20.5570    5.0591 H         1 UNK         0.0788 
     99 H99        26.5554   21.5532    1.1118 H         1 UNK         0.2993 
    100 H100       24.8985   22.4497   -0.4238 H         1 UNK         0.0949 
    101 H101       24.0579   25.2641    0.4985 H         1 UNK         0.0767 
    102 H102       23.8754   24.6183   -1.1307 H         1 UNK         0.0767 
    103 H103       22.9597   23.9210    0.1981 H         1 UNK         0.0767 
    104 H104       26.7512   24.5279    0.6046 H         1 UNK         0.3013 
    105 H105       27.7899   28.3130   -0.5046 H         1 UNK         0.3121 
    106 H106       25.7627   29.6416    0.9362 H         1 UNK         0.0774 
    107 H107       25.1207   30.5396   -1.3106 H         1 UNK         0.0815 
    108 H108       26.6621   30.0108   -1.9736 H         1 UNK         0.0815 
    109 H109       25.4953   28.8249   -1.3915 H         1 UNK         0.0815 
    110 H110       28.8669   30.8927   -0.2516 H         1 UNK         0.2987 
    111 H111       28.7110   33.2215    1.4397 H         1 UNK         0.0949 
    112 H112       27.3636   34.1635   -0.4074 H         1 UNK         0.0806 
    113 H113       28.9539   34.9009   -0.4367 H         1 UNK         0.0806 
    114 H114       28.5521   33.6442   -1.5996 H         1 UNK         0.0806 
    115 H115       30.5715   32.0568    2.2694 H         1 UNK         0.3010 
    116 H116       32.9763   33.1060    1.0923 H         1 UNK         0.0829 
    117 H117       32.8100   30.8111   -0.0638 H         1 UNK         0.0813 
    118 H118       34.2348   31.0084    0.9406 H         1 UNK         0.0813 
    119 H119       32.8807   30.0661    1.5330 H         1 UNK         0.0813 
    120 H120       34.4748   33.4880    2.6900 H         1 UNK         0.3038 
    121 H121       33.6377   33.5992    5.3857 H         1 UNK         0.0769 
    122 H122       36.4407   33.9011    4.1726 H         1 UNK         0.0811 
    123 H123       35.9671   34.4219    5.7832 H         1 UNK         0.0811 
    124 H124       35.2549   35.1920    4.3772 H         1 UNK         0.0811 
    125 H125       35.0894   30.9776    3.6984 H         1 UNK         0.3204 
    126 H126       36.3331   29.5668    5.8505 H         1 UNK         0.0748 
    127 H127       36.1705   27.6271    4.2538 H         1 UNK         0.0771 
    128 H128       35.1476   28.5861    3.1926 H         1 UNK         0.0771 
    129 H129       36.8219   29.0597    3.4779 H         1 UNK         0.0771 
    130 H130       32.9453   29.9954    5.0167 H         1 UNK         0.2980 
    131 H131       32.1818   28.1287    7.1766 H         1 UNK         0.0545 
    132 H132       31.4824   31.2233    5.4934 H         1 UNK         0.3459 
    133 H133       30.2989   31.6669    6.6958 H         1 UNK         0.3459 
    134 H134       31.6027   27.6897    4.3315 H         1 UNK         0.0616 
    135 H135       30.1197   27.9468    5.1559 H         1 UNK         0.0616 
    136 H136       33.4936   25.8217    5.3664 H         1 UNK         0.0634 
    137 H137       32.8169   24.2416    5.6448 H         1 UNK         0.0634 
@<TRIPOS>BOND
     1    1    2 1    
     2    1   72 1    
     3    1   73 1    
     4    1   74 1    
     5    2    3 2    
     6    2    4 am   BACKBONE|DICT|INTERRES
     7    4    5 1    
     8    4   75 1    
     9    5    6 1    
    10    5   35 1    
    11    5   76 1    
    12    6    7 1    
    13    6   77 1    
    14    6   78 1    
    15    7    8 1    
    16    8    9 1    
    17    8   79 1    
    18    8   80 1    
    19    9   10 ar   
    20    9   14 ar   
    21   10   11 ar   
    22   10   81 1    
    23   11   12 ar   
    24   11   71 1    
    25   12   13 ar   
    26   12   82 1    
    27   13   14 ar   
    28   13   15 1    
    29   14   83 1    
    30   15   16 1    
    31   15   84 1    
    32   15   85 1    
    33   16   17 1    
    34   17   18 1    
    35   17   86 1    
    36   17   87 1    
    37   18   19 1    
    38   18   37 1    
    39   18   88 1    
    40   19   20 am   BACKBONE|DICT|INTERRES
    41   19   89 1    
    42   20   21 2    
    43   20   22 1    
    44   22   23 1    
    45   22   24 1    
    46   22   90 1    
    47   23   91 1    
    48   23   92 1    
    49   23   93 1    
    50   24   25 am   BACKBONE|DICT|INTERRES
    51   24   94 1    
    52   25   26 2    
    53   25   27 1    
    54   27   28 1    
    55   27   29 1    
    56   27   95 1    
    57   28   96 1    
    58   28   97 1    
    59   28   98 1    
    60   29   30 am   BACKBONE|DICT|INTERRES
    61   29   99 1    
    62   30   31 2    
    63   30   32 1    
    64   32   33 1    
    65   32   34 1    
    66   32  100 1    
    67   33  101 1    
    68   33  102 1    
    69   33  103 1    
    70   34   35 am   BACKBONE|DICT|INTERRES
    71   34  104 1    
    72   35   36 2    
    73   37   38 2    
    74   37   39 am   BACKBONE|DICT|INTERRES
    75   39   40 1    
    76   39  105 1    
    77   40   41 1    
    78   40   42 1    
    79   40  106 1    
    80   41  107 1    
    81   41  108 1    
    82   41  109 1    
    83   42   43 2    
    84   42   44 am   BACKBONE|DICT|INTERRES
    85   44   45 1    
    86   44  110 1    
    87   45   46 1    
    88   45   47 1    
    89   45  111 1    
    90   46  112 1    
    91   46  113 1    
    92   46  114 1    
    93   47   48 2    
    94   47   49 am   BACKBONE|DICT|INTERRES
    95   49   50 1    
    96   49  115 1    
    97   50   51 1    
    98   50   52 1    
    99   50  116 1    
   100   51  117 1    
   101   51  118 1    
   102   51  119 1    
   103   52   53 2    
   104   52   54 am   BACKBONE|DICT|INTERRES
   105   54   55 1    
   106   54  120 1    
   107   55   56 1    
   108   55   57 1    
   109   55  121 1    
   110   56  122 1    
   111   56  123 1    
   112   56  124 1    
   113   57   58 2    
   114   57   59 am   BACKBONE|DICT|INTERRES
   115   59   60 1    
   116   59  125 1    
   117   60   61 1    
   118   60   62 1    
   119   60  126 1    
   120   61  127 1    
   121   61  128 1    
   122   61  129 1    
   123   62   63 2    
   124   62   64 am   BACKBONE|DICT|INTERRES
   125   64   65 1    
   126   64  130 1    
   127   65   66 1    
   128   65   69 1    
   129   65  131 1    
   130   66   67 am   BACKBONE|DICT|INTERRES
   131   66   68 2    
   132   67  132 1    
   133   67  133 1    
   134   69   70 1    
   135   69  134 1    
   136   69  135 1    
   137   70   71 1    
   138   71  136 1    
   139   71  137 1    
@<TRIPOS>SUBSTRUCTURE
     1 UNK         1 GROUP             0       ****    0 ROOT    
