@<TRIPOS>MOLECULE
3R136
137   139    1
SMALL
USER_CHARGES


@<TRIPOS>ATOM
      1 CA         28.3889   24.3935    6.6035 C.3       0 UNK        -0.1979 
      2 C          28.0490   24.4746    5.1237 C.2       0 UNK         0.4864 
      3 O          27.2761   25.3445    4.7216 O.2       0 UNK        -0.5359 
      4 N          28.6372   23.5877    4.3077 N.am      1 UNK        -0.4318 
      5 CA         28.4442   23.4862    2.8526 C.3       1 UNK         0.0824 
      6 C6         29.2155   22.2903    2.2348 C.3       12 UNK        -0.0944 
      7 S7         30.9530   22.1412    2.7923 S.3       12 UNK        -0.2672 
      8 C8         31.8828   22.0281    1.2299 C.3       12 UNK         0.0333 
      9 C9         32.4598   23.3728    0.8117 C.ar      12 UNK        -0.0807 
     10 C10        33.5735   23.8852    1.4824 C.ar      12 UNK        -0.0894 
     11 C11        34.1377   25.1025    1.0960 C.ar      12 UNK        -0.0804 
     12 C12        33.5781   25.8063    0.0252 C.ar      12 UNK        -0.0824 
     13 C13        32.4770   25.3013   -0.6760 C.ar      12 UNK        -0.0762 
     14 C14        31.9186   24.0800   -0.2668 C.ar      12 UNK        -0.0782 
     15 C15        31.9548   26.1176   -1.8652 C.3       12 UNK         0.0230 
     16 S16        30.6526   25.3414   -2.8898 S.3       12 UNK        -0.2608 
     17 C17        29.2189   25.4781   -1.7708 C.3       12 UNK        -0.0989 
     18 CA         28.0591   26.4150   -2.1983 C.3       5 UNK         0.0716 
     19 N          27.0980   26.5151   -1.1022 N.am      5 UNK        -0.4135 
     20 C          25.8485   26.9888   -1.1735 C.2       4 UNK         0.5031 
     21 O          25.3502   27.4826   -2.1848 O.2       4 UNK        -0.5229 
     22 CA         25.0113   26.8711    0.1092 C.3       4 UNK         0.0329 
     23 CB         24.4724   25.4400    0.2727 C.3       4 UNK        -0.2001 
     24 N          25.8078   27.2259    1.2855 N.am      4 UNK        -0.4303 
     25 C          25.8136   28.4386    1.8533 C.2       3 UNK         0.5044 
     26 O          25.0627   29.3529    1.5153 O.2       3 UNK        -0.5152 
     27 CA         26.8336   28.6926    2.9773 C.3       3 UNK         0.0319 
     28 CB         26.1671   28.5576    4.3549 C.3       3 UNK        -0.2001 
     29 N          28.0052   27.8149    2.9131 N.am      3 UNK        -0.4354 
     30 C          28.9747   27.9134    1.9903 C.2       2 UNK         0.4964 
     31 O          28.9771   28.7524    1.0878 O.2       2 UNK        -0.5047 
     32 CA         30.1123   26.8770    2.0382 C.3       2 UNK         0.0288 
     33 CB         31.2819   27.4090    2.8716 C.3       2 UNK        -0.2113 
     34 N          29.7212   25.5637    2.5564 N.am      2 UNK        -0.4145 
     35 C          28.7248   24.7966    2.0926 C.2       1 UNK         0.5006 
     36 O          27.9985   25.1133    1.1486 O.2       1 UNK        -0.5103 
     37 C          28.5164   27.7959   -2.7182 C.2       5 UNK         0.5055 
     38 O          28.4852   28.0138   -3.9312 O.2       5 UNK        -0.5220 
     39 N          28.9327   28.6942   -1.8134 N.am      6 UNK        -0.4450 
     40 CA         29.5153   29.9972   -2.1599 C.3       6 UNK         0.0367 
     41 CB         31.0034   29.9899   -1.7635 C.3       6 UNK        -0.1929 
     42 C          28.7969   31.1875   -1.5042 C.2       6 UNK         0.5070 
     43 O          29.1350   32.3263   -1.8285 O.2       6 UNK        -0.5237 
     44 N          27.8583   30.9227   -0.5817 N.am      7 UNK        -0.4739 
     45 CA         27.2313   31.8895    0.3336 C.3       7 UNK         0.0276 
     46 CB         26.3651   32.9147   -0.4295 C.3       7 UNK        -0.1927 
     47 C          28.2597   32.5401    1.2829 C.2       7 UNK         0.5013 
     48 O          28.1464   33.7252    1.6028 O.2       7 UNK        -0.5193 
     49 N          29.2548   31.7459    1.6956 N.am      8 UNK        -0.4253 
     50 CA         30.3709   32.1460    2.5493 C.3       8 UNK         0.0242 
     51 CB         31.6716   31.6636    1.8809 C.3       8 UNK        -0.2000 
     52 C          30.2182   31.5451    3.9552 C.2       8 UNK         0.4948 
     53 O          29.3035   30.7549    4.1995 O.2       8 UNK        -0.5275 
     54 N          31.1322   31.9230    4.8592 N.am      9 UNK        -0.4246 
     55 CA         31.2714   31.3285    6.1918 C.3       9 UNK         0.0261 
     56 CB         32.2738   32.1555    7.0135 C.3       9 UNK        -0.1959 
     57 C          31.7272   29.8609    6.1003 C.2       9 UNK         0.5033 
     58 O          32.4886   29.5211    5.1918 O.2       9 UNK        -0.5390 
     59 N          31.2530   29.0322    7.0406 N.am      10 UNK        -0.4215 
     60 CA         31.4700   27.5836    7.0937 C.3       10 UNK         0.0240 
     61 CB         30.7414   27.0082    8.3202 C.3       10 UNK        -0.1982 
     62 C          32.9581   27.1902    7.1131 C.2       10 UNK         0.4970 
     63 O          33.6806   27.5874    8.0303 O.2       10 UNK        -0.4916 
     64 N          33.3709   26.4101    6.1086 N.am      11 UNK        -0.4279 
     65 CA         34.7124   25.8258    5.9870 C.3       11 UNK         0.1003 
     66 C          34.9760   24.7335    7.0596 C.2       11 UNK         0.5709 
     67 N          36.2186   24.5822    7.4971 N.am      11 UNK        -0.7358 
     68 O          34.0770   23.9997    7.4680 O.2       11 UNK        -0.4999 
     69 C69        34.9460   25.2650    4.5603 C.3       12 UNK        -0.0954 
     70 S70        34.9764   26.5820    3.2994 S.3       12 UNK        -0.2268 
     71 C71        35.3798   25.6361    1.7982 C.3       12 UNK         0.0203 
     72 H72        27.5487   23.9759    7.1574 H         1 UNK         0.0888 
     73 H73        29.2649   23.7716    6.7871 H         1 UNK         0.0888 
     74 H74        28.5918   25.3892    6.9948 H         1 UNK         0.0888 
     75 H75        29.2760   22.9070    4.6957 H         1 UNK         0.3017 
     76 H76        27.3798   23.2907    2.7056 H         1 UNK         0.0873 
     77 H77        28.7138   21.3638    2.5184 H         1 UNK         0.0745 
     78 H78        29.1655   22.3177    1.1444 H         1 UNK         0.0745 
     79 H79        31.2590   21.6023    0.4428 H         1 UNK         0.0705 
     80 H80        32.7033   21.3227    1.3703 H         1 UNK         0.0705 
     81 H81        34.0073   23.3264    2.3000 H         1 UNK         0.1334 
     82 H82        34.0186   26.7463   -0.2789 H         1 UNK         0.1417 
     83 H83        31.0733   23.6578   -0.7889 H         1 UNK         0.1562 
     84 H84        32.7946   26.3478   -2.5226 H         1 UNK         0.0748 
     85 H85        31.5856   27.0738   -1.4947 H         1 UNK         0.0748 
     86 H86        29.5880   25.7873   -0.7958 H         1 UNK         0.0940 
     87 H87        28.8255   24.4712   -1.6204 H         1 UNK         0.0940 
     88 H88        27.5423   25.9287   -3.0286 H         1 UNK         0.0703 
     89 H89        27.3904   26.0768   -0.2313 H         1 UNK         0.3081 
     90 H90        24.1550   27.5425    0.0146 H         1 UNK         0.0719 
     91 H91        25.2759   24.7096    0.3774 H         1 UNK         0.0809 
     92 H92        23.8317   25.3586    1.1509 H         1 UNK         0.0809 
     93 H93        23.8750   25.1472   -0.5919 H         1 UNK         0.0809 
     94 H94        26.4652   26.5323    1.6208 H         1 UNK         0.2990 
     95 H95        27.1806   29.7222    2.8738 H         1 UNK         0.0690 
     96 H96        25.7747   27.5534    4.5183 H         1 UNK         0.0788 
     97 H97        25.3330   29.2536    4.4535 H         1 UNK         0.0788 
     98 H98        26.8711   28.7802    5.1572 H         1 UNK         0.0788 
     99 H99        28.0434   27.0652    3.5943 H         1 UNK         0.2993 
    100 H100       30.4728   26.7347    1.0201 H         1 UNK         0.0949 
    101 H101       31.6778   28.3326    2.4500 H         1 UNK         0.0767 
    102 H102       30.9797   27.6244    3.8957 H         1 UNK         0.0767 
    103 H103       32.1016   26.6928    2.9000 H         1 UNK         0.0767 
    104 H104       30.2594   25.2034    3.3299 H         1 UNK         0.3013 
    105 H105       28.9168   28.4635   -0.8241 H         1 UNK         0.3121 
    106 H106       29.4567   30.1740   -3.2357 H         1 UNK         0.0774 
    107 H107       31.5632   29.2653   -2.3538 H         1 UNK         0.0815 
    108 H108       31.4660   30.9626   -1.9370 H         1 UNK         0.0815 
    109 H109       31.1390   29.7480   -0.7087 H         1 UNK         0.0815 
    110 H110       27.6781   29.9513   -0.3705 H         1 UNK         0.2987 
    111 H111       26.5621   31.3221    0.9770 H         1 UNK         0.0949 
    112 H112       26.9688   33.5917   -1.0341 H         1 UNK         0.0806 
    113 H113       25.6529   32.4184   -1.0885 H         1 UNK         0.0806 
    114 H114       25.7895   33.5289    0.2639 H         1 UNK         0.0806 
    115 H115       29.2178   30.7624    1.4484 H         1 UNK         0.3010 
    116 H116       30.4061   33.2330    2.6476 H         1 UNK         0.0829 
    117 H117       32.5521   31.9650    2.4491 H         1 UNK         0.0813 
    118 H118       31.6982   30.5778    1.7904 H         1 UNK         0.0813 
    119 H119       31.7778   32.0821    0.8797 H         1 UNK         0.0813 
    120 H120       31.8667   32.5526    4.5712 H         1 UNK         0.3038 
    121 H121       30.2964   31.3673    6.6826 H         1 UNK         0.0769 
    122 H122       32.3778   31.7540    8.0224 H         1 UNK         0.0811 
    123 H123       31.9499   33.1919    7.1105 H         1 UNK         0.0811 
    124 H124       33.2658   32.1534    6.5595 H         1 UNK         0.0811 
    125 H125       30.6669   29.4190    7.7660 H         1 UNK         0.3204 
    126 H126       31.0046   27.1570    6.2037 H         1 UNK         0.0748 
    127 H127       30.8559   25.9243    8.3689 H         1 UNK         0.0771 
    128 H128       31.1347   27.4181    9.2516 H         1 UNK         0.0771 
    129 H129       29.6727   27.2205    8.2867 H         1 UNK         0.0771 
    130 H130       32.7155   26.1420    5.3922 H         1 UNK         0.2980 
    131 H131       35.4315   26.6298    6.1580 H         1 UNK         0.0545 
    132 H132       36.4127   23.8690    8.1826 H         1 UNK         0.3459 
    133 H133       36.9659   25.1694    7.1605 H         1 UNK         0.3459 
    134 H134       35.8999   24.7366    4.5077 H         1 UNK         0.0616 
    135 H135       34.1729   24.5391    4.3045 H         1 UNK         0.0616 
    136 H136       35.9344   26.2882    1.1218 H         1 UNK         0.0634 
    137 H137       36.0565   24.8163    2.0438 H         1 UNK         0.0634 
@<TRIPOS>BOND
     1    1    2 1    
     2    1   72 1    
     3    1   73 1    
     4    1   74 1    
     5    2    3 2    
     6    2    4 am   BACKBONE|DICT|INTERRES
     7    4    5 1    
     8    4   75 1    
     9    5    6 1    
    10    5   35 1    
    11    5   76 1    
    12    6    7 1    
    13    6   77 1    
    14    6   78 1    
    15    7    8 1    
    16    8    9 1    
    17    8   79 1    
    18    8   80 1    
    19    9   10 ar   
    20    9   14 ar   
    21   10   11 ar   
    22   10   81 1    
    23   11   12 ar   
    24   11   71 1    
    25   12   13 ar   
    26   12   82 1    
    27   13   14 ar   
    28   13   15 1    
    29   14   83 1    
    30   15   16 1    
    31   15   84 1    
    32   15   85 1    
    33   16   17 1    
    34   17   18 1    
    35   17   86 1    
    36   17   87 1    
    37   18   19 1    
    38   18   37 1    
    39   18   88 1    
    40   19   20 am   BACKBONE|DICT|INTERRES
    41   19   89 1    
    42   20   21 2    
    43   20   22 1    
    44   22   23 1    
    45   22   24 1    
    46   22   90 1    
    47   23   91 1    
    48   23   92 1    
    49   23   93 1    
    50   24   25 am   BACKBONE|DICT|INTERRES
    51   24   94 1    
    52   25   26 2    
    53   25   27 1    
    54   27   28 1    
    55   27   29 1    
    56   27   95 1    
    57   28   96 1    
    58   28   97 1    
    59   28   98 1    
    60   29   30 am   BACKBONE|DICT|INTERRES
    61   29   99 1    
    62   30   31 2    
    63   30   32 1    
    64   32   33 1    
    65   32   34 1    
    66   32  100 1    
    67   33  101 1    
    68   33  102 1    
    69   33  103 1    
    70   34   35 am   BACKBONE|DICT|INTERRES
    71   34  104 1    
    72   35   36 2    
    73   37   38 2    
    74   37   39 am   BACKBONE|DICT|INTERRES
    75   39   40 1    
    76   39  105 1    
    77   40   41 1    
    78   40   42 1    
    79   40  106 1    
    80   41  107 1    
    81   41  108 1    
    82   41  109 1    
    83   42   43 2    
    84   42   44 am   BACKBONE|DICT|INTERRES
    85   44   45 1    
    86   44  110 1    
    87   45   46 1    
    88   45   47 1    
    89   45  111 1    
    90   46  112 1    
    91   46  113 1    
    92   46  114 1    
    93   47   48 2    
    94   47   49 am   BACKBONE|DICT|INTERRES
    95   49   50 1    
    96   49  115 1    
    97   50   51 1    
    98   50   52 1    
    99   50  116 1    
   100   51  117 1    
   101   51  118 1    
   102   51  119 1    
   103   52   53 2    
   104   52   54 am   BACKBONE|DICT|INTERRES
   105   54   55 1    
   106   54  120 1    
   107   55   56 1    
   108   55   57 1    
   109   55  121 1    
   110   56  122 1    
   111   56  123 1    
   112   56  124 1    
   113   57   58 2    
   114   57   59 am   BACKBONE|DICT|INTERRES
   115   59   60 1    
   116   59  125 1    
   117   60   61 1    
   118   60   62 1    
   119   60  126 1    
   120   61  127 1    
   121   61  128 1    
   122   61  129 1    
   123   62   63 2    
   124   62   64 am   BACKBONE|DICT|INTERRES
   125   64   65 1    
   126   64  130 1    
   127   65   66 1    
   128   65   69 1    
   129   65  131 1    
   130   66   67 am   BACKBONE|DICT|INTERRES
   131   66   68 2    
   132   67  132 1    
   133   67  133 1    
   134   69   70 1    
   135   69  134 1    
   136   69  135 1    
   137   70   71 1    
   138   71  136 1    
   139   71  137 1    
@<TRIPOS>SUBSTRUCTURE
     1 UNK         1 GROUP             0       ****    0 ROOT    
