@<TRIPOS>MOLECULE
3R136
137   139    1
SMALL
USER_CHARGES


@<TRIPOS>ATOM
      1 CA         25.0626   20.2860   -0.1953 C.3       0 UNK        -0.1979 
      2 C          26.2647   21.2191   -0.2321 C.2       0 UNK         0.4864 
      3 O          26.3008   22.1825    0.5330 O.2       0 UNK        -0.5359 
      4 N          27.2376   20.9195   -1.1069 N.am      1 UNK        -0.4318 
      5 CA         28.4640   21.6790   -1.3924 C.3       1 UNK         0.0824 
      6 C6         29.2785   22.0448   -0.1194 C.3       12 UNK        -0.0944 
      7 S7         31.0548   22.2967   -0.4573 S.3       12 UNK        -0.2672 
      8 C8         31.8169   21.6361    1.0596 C.3       12 UNK         0.0333 
      9 C9         31.6015   22.5485    2.2606 C.ar      12 UNK        -0.0807 
     10 C10        32.4309   23.6575    2.4563 C.ar      12 UNK        -0.0894 
     11 C11        32.2631   24.4842    3.5723 C.ar      12 UNK        -0.0804 
     12 C12        31.2669   24.1840    4.5052 C.ar      12 UNK        -0.0824 
     13 C13        30.4075   23.1017    4.3034 C.ar      12 UNK        -0.0762 
     14 C14        30.5857   22.2809    3.1843 C.ar      12 UNK        -0.0782 
     15 C15        29.2822   22.8190    5.2875 C.3       12 UNK         0.0230 
     16 S16        27.6816   23.3999    4.6420 S.3       12 UNK        -0.2608 
     17 C17        27.5543   25.1085    5.2881 C.3       12 UNK        -0.0989 
     18 CA         28.2775   26.2023    4.4473 C.3       5 UNK         0.0716 
     19 N          28.0846   26.0541    3.0011 N.am      5 UNK        -0.4135 
     20 C          26.9642   26.2271    2.2910 C.2       4 UNK         0.5031 
     21 O          25.9099   26.6482    2.7717 O.2       4 UNK        -0.5229 
     22 CA         27.0328   25.8554    0.7912 C.3       4 UNK         0.0329 
     23 CB         25.7402   26.2149    0.0345 C.3       4 UNK        -0.2001 
     24 N          28.1746   26.4085    0.0479 N.am      4 UNK        -0.4303 
     25 C          29.4607   26.0634    0.1940 C.2       3 UNK         0.5044 
     26 O          29.8740   25.3370    1.0945 O.2       3 UNK        -0.5152 
     27 CA         30.4248   26.5295   -0.9051 C.3       3 UNK         0.0319 
     28 CB         31.8948   26.5046   -0.4461 C.3       3 UNK        -0.2001 
     29 N          30.2722   25.6065   -2.0239 N.am      3 UNK        -0.4354 
     30 C          29.3902   25.7403   -3.0227 C.2       2 UNK         0.4964 
     31 O          28.7221   26.7553   -3.2210 O.2       2 UNK        -0.5047 
     32 CA         29.1840   24.5016   -3.9111 C.3       2 UNK         0.0288 
     33 CB         30.2707   24.4166   -4.9953 C.3       2 UNK        -0.2113 
     34 N          29.1785   23.2673   -3.1177 N.am      2 UNK        -0.4145 
     35 C          28.1897   22.9123   -2.2830 C.2       1 UNK         0.5006 
     36 O          27.1216   23.5239   -2.2052 O.2       1 UNK        -0.5103 
     37 C          27.9735   27.6315    4.9577 C.2       5 UNK         0.5055 
     38 O          27.5278   27.7912    6.0964 O.2       5 UNK        -0.5220 
     39 N          28.2037   28.6428    4.1099 N.am      6 UNK        -0.4450 
     40 CA         27.8637   30.0405    4.3629 C.3       6 UNK         0.0367 
     41 CB         27.1000   30.5825    3.1423 C.3       6 UNK        -0.1929 
     42 C          29.1273   30.8747    4.5885 C.2       6 UNK         0.5070 
     43 O          30.1501   30.6338    3.9419 O.2       6 UNK        -0.5237 
     44 N          29.0043   31.9146    5.4239 N.am      7 UNK        -0.4739 
     45 CA         30.0443   32.9252    5.6552 C.3       7 UNK         0.0276 
     46 CB         29.6096   33.8601    6.7942 C.3       7 UNK        -0.1927 
     47 C          30.3905   33.7340    4.3920 C.2       7 UNK         0.5013 
     48 O          31.5371   34.1512    4.2368 O.2       7 UNK        -0.5193 
     49 N          29.4198   33.8726    3.4765 N.am      8 UNK        -0.4253 
     50 CA         29.5938   34.4357    2.1336 C.3       8 UNK         0.0242 
     51 CB         28.2171   34.5723    1.4633 C.3       8 UNK        -0.2000 
     52 C          30.5480   33.6198    1.2378 C.2       8 UNK         0.4948 
     53 O          31.1447   34.1922    0.3257 O.2       8 UNK        -0.5275 
     54 N          30.6962   32.3178    1.5243 N.am      9 UNK        -0.4246 
     55 CA         31.6588   31.4164    0.8875 C.3       9 UNK         0.0261 
     56 CB         30.9682   30.0673    0.6178 C.3       9 UNK        -0.1959 
     57 C          32.9286   31.2317    1.7447 C.2       9 UNK         0.5033 
     58 O          33.7482   30.3736    1.4158 O.2       9 UNK        -0.5390 
     59 N          33.0684   32.0225    2.8222 N.am      10 UNK        -0.4215 
     60 CA         34.1373   32.0073    3.8279 C.3       10 UNK         0.0240 
     61 CB         35.5109   32.3172    3.1937 C.3       10 UNK        -0.1982 
     62 C          34.1582   30.7440    4.7121 C.2       10 UNK         0.4970 
     63 O          35.1808   30.4775    5.3471 O.2       10 UNK        -0.4916 
     64 N          33.0456   30.0003    4.7675 N.am      11 UNK        -0.4279 
     65 CA         32.8871   28.8227    5.6313 C.3       11 UNK         0.1003 
     66 C          32.5639   29.2181    7.0974 C.2       11 UNK         0.5709 
     67 N          32.8770   28.3532    8.0529 N.am      11 UNK        -0.7358 
     68 O          32.0094   30.2794    7.3781 O.2       11 UNK        -0.4999 
     69 C69        31.8322   27.8360    5.0726 C.3       12 UNK        -0.0954 
     70 S70        32.2566   27.2483    3.3989 S.3       12 UNK        -0.2268 
     71 C71        33.1522   25.7041    3.7623 C.3       12 UNK         0.0203 
     72 H72        25.1593   19.4641   -0.9045 H         1 UNK         0.0888 
     73 H73        24.9484   19.8613    0.8017 H         1 UNK         0.0888 
     74 H74        24.1542   20.8370   -0.4371 H         1 UNK         0.0888 
     75 H75        27.1050   20.1127   -1.7010 H         1 UNK         0.3017 
     76 H76        29.0662   20.9882   -1.9854 H         1 UNK         0.0873 
     77 H77        28.8785   22.9332    0.3723 H         1 UNK         0.0745 
     78 H78        29.1872   21.2388    0.6096 H         1 UNK         0.0745 
     79 H79        31.4322   20.6349    1.2598 H         1 UNK         0.0705 
     80 H80        32.8873   21.5165    0.8860 H         1 UNK         0.0705 
     81 H81        33.2016   23.8804    1.7316 H         1 UNK         0.1334 
     82 H82        31.1415   24.8094    5.3765 H         1 UNK         0.1417 
     83 H83        29.9262   21.4379    3.0305 H         1 UNK         0.1562 
     84 H84        29.4849   23.2706    6.2597 H         1 UNK         0.0748 
     85 H85        29.2193   21.7436    5.4607 H         1 UNK         0.0748 
     86 H86        27.9137   25.1224    6.3186 H         1 UNK         0.0940 
     87 H87        26.4884   25.3381    5.3454 H         1 UNK         0.0940 
     88 H88        29.3471   26.0782    4.6000 H         1 UNK         0.0703 
     89 H89        28.8912   25.6992    2.4843 H         1 UNK         0.3081 
     90 H90        27.1305   24.7684    0.7594 H         1 UNK         0.0719 
     91 H91        25.5694   27.2919    0.0169 H         1 UNK         0.0809 
     92 H92        25.7736   25.8590   -0.9957 H         1 UNK         0.0809 
     93 H93        24.8704   25.7510    0.5017 H         1 UNK         0.0809 
     94 H94        27.9391   26.9962   -0.7400 H         1 UNK         0.2990 
     95 H95        30.1665   27.5484   -1.2012 H         1 UNK         0.0690 
     96 H96        32.5598   26.8754   -1.2258 H         1 UNK         0.0788 
     97 H97        32.2204   25.4984   -0.1779 H         1 UNK         0.0788 
     98 H98        32.0406   27.1324    0.4325 H         1 UNK         0.0788 
     99 H99        30.7348   24.7150   -1.9156 H         1 UNK         0.2993 
    100 H100       28.2139   24.6016   -4.4035 H         1 UNK         0.0949 
    101 H101       30.0947   23.5761   -5.6670 H         1 UNK         0.0767 
    102 H102       30.2819   25.3207   -5.6059 H         1 UNK         0.0767 
    103 H103       31.2667   24.3008   -4.5659 H         1 UNK         0.0767 
    104 H104       30.0222   22.7115   -3.1338 H         1 UNK         0.3013 
    105 H105       28.6472   28.4434    3.2252 H         1 UNK         0.3121 
    106 H106       27.2194   30.1260    5.2406 H         1 UNK         0.0774 
    107 H107       26.7844   31.6144    3.3001 H         1 UNK         0.0815 
    108 H108       27.7101   30.5609    2.2379 H         1 UNK         0.0815 
    109 H109       26.2003   29.9972    2.9499 H         1 UNK         0.0815 
    110 H110       28.1294   32.0477    5.9119 H         1 UNK         0.2987 
    111 H111       30.9527   32.4036    5.9653 H         1 UNK         0.0949 
    112 H112       28.6896   34.3940    6.5530 H         1 UNK         0.0806 
    113 H113       29.4464   33.3072    7.7196 H         1 UNK         0.0806 
    114 H114       30.3771   34.6082    6.9982 H         1 UNK         0.0806 
    115 H115       28.5058   33.5083    3.7013 H         1 UNK         0.3010 
    116 H116       30.0247   35.4331    2.2448 H         1 UNK         0.0829 
    117 H117       27.5543   35.2154    2.0428 H         1 UNK         0.0813 
    118 H118       28.3090   35.0167    0.4711 H         1 UNK         0.0813 
    119 H119       27.7278   33.6049    1.3423 H         1 UNK         0.0813 
    120 H120       30.1993   31.9260    2.3168 H         1 UNK         0.3038 
    121 H121       31.9764   31.8287   -0.0724 H         1 UNK         0.0769 
    122 H122       30.7369   29.5362    1.5420 H         1 UNK         0.0811 
    123 H123       31.6140   29.4220    0.0229 H         1 UNK         0.0811 
    124 H124       30.0406   30.1965    0.0602 H         1 UNK         0.0811 
    125 H125       32.3444   32.7095    3.0024 H         1 UNK         0.3204 
    126 H126       33.9080   32.8284    4.5082 H         1 UNK         0.0748 
    127 H127       36.2686   32.4823    3.9607 H         1 UNK         0.0771 
    128 H128       35.8619   31.4988    2.5646 H         1 UNK         0.0771 
    129 H129       35.4713   33.2187    2.5822 H         1 UNK         0.0771 
    130 H130       32.2170   30.2883    4.2605 H         1 UNK         0.2980 
    131 H131       33.8424   28.2941    5.6497 H         1 UNK         0.0545 
    132 H132       33.3296   27.4781    7.8405 H         1 UNK         0.3459 
    133 H133       32.6655   28.5874    9.0101 H         1 UNK         0.3459 
    134 H134       31.7146   26.9795    5.7364 H         1 UNK         0.0616 
    135 H135       30.8565   28.3166    5.0270 H         1 UNK         0.0616 
    136 H136       34.0162   25.6482    3.0985 H         1 UNK         0.0634 
    137 H137       33.5524   25.7229    4.7768 H         1 UNK         0.0634 
@<TRIPOS>BOND
     1    1    2 1    
     2    1   72 1    
     3    1   73 1    
     4    1   74 1    
     5    2    3 2    
     6    2    4 am   BACKBONE|DICT|INTERRES
     7    4    5 1    
     8    4   75 1    
     9    5    6 1    
    10    5   35 1    
    11    5   76 1    
    12    6    7 1    
    13    6   77 1    
    14    6   78 1    
    15    7    8 1    
    16    8    9 1    
    17    8   79 1    
    18    8   80 1    
    19    9   10 ar   
    20    9   14 ar   
    21   10   11 ar   
    22   10   81 1    
    23   11   12 ar   
    24   11   71 1    
    25   12   13 ar   
    26   12   82 1    
    27   13   14 ar   
    28   13   15 1    
    29   14   83 1    
    30   15   16 1    
    31   15   84 1    
    32   15   85 1    
    33   16   17 1    
    34   17   18 1    
    35   17   86 1    
    36   17   87 1    
    37   18   19 1    
    38   18   37 1    
    39   18   88 1    
    40   19   20 am   BACKBONE|DICT|INTERRES
    41   19   89 1    
    42   20   21 2    
    43   20   22 1    
    44   22   23 1    
    45   22   24 1    
    46   22   90 1    
    47   23   91 1    
    48   23   92 1    
    49   23   93 1    
    50   24   25 am   BACKBONE|DICT|INTERRES
    51   24   94 1    
    52   25   26 2    
    53   25   27 1    
    54   27   28 1    
    55   27   29 1    
    56   27   95 1    
    57   28   96 1    
    58   28   97 1    
    59   28   98 1    
    60   29   30 am   BACKBONE|DICT|INTERRES
    61   29   99 1    
    62   30   31 2    
    63   30   32 1    
    64   32   33 1    
    65   32   34 1    
    66   32  100 1    
    67   33  101 1    
    68   33  102 1    
    69   33  103 1    
    70   34   35 am   BACKBONE|DICT|INTERRES
    71   34  104 1    
    72   35   36 2    
    73   37   38 2    
    74   37   39 am   BACKBONE|DICT|INTERRES
    75   39   40 1    
    76   39  105 1    
    77   40   41 1    
    78   40   42 1    
    79   40  106 1    
    80   41  107 1    
    81   41  108 1    
    82   41  109 1    
    83   42   43 2    
    84   42   44 am   BACKBONE|DICT|INTERRES
    85   44   45 1    
    86   44  110 1    
    87   45   46 1    
    88   45   47 1    
    89   45  111 1    
    90   46  112 1    
    91   46  113 1    
    92   46  114 1    
    93   47   48 2    
    94   47   49 am   BACKBONE|DICT|INTERRES
    95   49   50 1    
    96   49  115 1    
    97   50   51 1    
    98   50   52 1    
    99   50  116 1    
   100   51  117 1    
   101   51  118 1    
   102   51  119 1    
   103   52   53 2    
   104   52   54 am   BACKBONE|DICT|INTERRES
   105   54   55 1    
   106   54  120 1    
   107   55   56 1    
   108   55   57 1    
   109   55  121 1    
   110   56  122 1    
   111   56  123 1    
   112   56  124 1    
   113   57   58 2    
   114   57   59 am   BACKBONE|DICT|INTERRES
   115   59   60 1    
   116   59  125 1    
   117   60   61 1    
   118   60   62 1    
   119   60  126 1    
   120   61  127 1    
   121   61  128 1    
   122   61  129 1    
   123   62   63 2    
   124   62   64 am   BACKBONE|DICT|INTERRES
   125   64   65 1    
   126   64  130 1    
   127   65   66 1    
   128   65   69 1    
   129   65  131 1    
   130   66   67 am   BACKBONE|DICT|INTERRES
   131   66   68 2    
   132   67  132 1    
   133   67  133 1    
   134   69   70 1    
   135   69  134 1    
   136   69  135 1    
   137   70   71 1    
   138   71  136 1    
   139   71  137 1    
@<TRIPOS>SUBSTRUCTURE
     1 UNK         1 GROUP             0       ****    0 ROOT    
