@<TRIPOS>MOLECULE
3R136
137   139    1
SMALL
USER_CHARGES


@<TRIPOS>ATOM
      1 CA         25.6551   23.2208    3.4955 C.3       0 UNK        -0.1979 
      2 C          26.2703   22.4621    2.3293 C.2       0 UNK         0.4864 
      3 O          25.6306   21.5665    1.7759 O.2       0 UNK        -0.5359 
      4 N          27.5066   22.8139    1.9556 N.am      1 UNK        -0.4318 
      5 CA         28.2328   22.2376    0.8173 C.3       1 UNK         0.0824 
      6 C6         29.7654   22.3951    0.9688 C.3       12 UNK        -0.0944 
      7 S7         30.3807   21.4414    2.3960 S.3       12 UNK        -0.2672 
      8 C8         32.1745   21.7401    2.2985 C.3       12 UNK         0.0333 
      9 C9         32.5477   23.1660    2.6813 C.ar      12 UNK        -0.0807 
     10 C10        33.2316   23.9848    1.7749 C.ar      12 UNK        -0.0894 
     11 C11        33.5863   25.2902    2.1288 C.ar      12 UNK        -0.0804 
     12 C12        33.2440   25.7703    3.3925 C.ar      12 UNK        -0.0824 
     13 C13        32.5681   24.9658    4.3109 C.ar      12 UNK        -0.0762 
     14 C14        32.2268   23.6598    3.9516 C.ar      12 UNK        -0.0782 
     15 C15        32.2180   25.5123    5.6886 C.3       12 UNK         0.0230 
     16 S16        30.5341   26.2057    5.7516 S.3       12 UNK        -0.2608 
     17 C17        30.6213   27.5257    4.4970 C.3       12 UNK        -0.0989 
     18 CA         29.8511   27.1205    3.2163 C.3       5 UNK         0.0716 
     19 N          28.4196   27.3633    3.3756 N.am      5 UNK        -0.4135 
     20 C          27.4536   26.7015    2.7325 C.2       4 UNK         0.5031 
     21 O          27.6723   25.7646    1.9566 O.2       4 UNK        -0.5229 
     22 CA         25.9960   27.1317    2.9864 C.3       4 UNK         0.0329 
     23 CB         25.8177   28.3244    3.9545 C.3       4 UNK        -0.2001 
     24 N          25.3157   27.3521    1.7089 N.am      4 UNK        -0.4303 
     25 C          25.5782   28.3075    0.8059 C.2       3 UNK         0.5044 
     26 O          26.3058   29.2793    1.0099 O.2       3 UNK        -0.5152 
     27 CA         24.9733   28.0724   -0.5895 C.3       3 UNK         0.0319 
     28 CB         24.9787   29.3330   -1.4733 C.3       3 UNK        -0.2001 
     29 N          25.7201   27.0041   -1.2588 N.am      3 UNK        -0.4354 
     30 C          25.5451   25.6978   -1.0136 C.2       2 UNK         0.4964 
     31 O          24.6517   25.2635   -0.2830 O.2       2 UNK        -0.5047 
     32 CA         26.5417   24.7032   -1.6198 C.3       2 UNK         0.0288 
     33 CB         27.5542   25.3065   -2.6140 C.3       2 UNK        -0.2113 
     34 N          27.2285   24.0549   -0.5061 N.am      2 UNK        -0.4145 
     35 C          27.7349   22.8155   -0.5239 C.2       1 UNK         0.5006 
     36 O          27.7939   22.1171   -1.5379 O.2       1 UNK        -0.5103 
     37 C          30.3211   27.8678    1.9566 C.2       5 UNK         0.5055 
     38 O          30.7654   29.0138    2.0475 O.2       5 UNK        -0.5220 
     39 N          30.1480   27.2130    0.7989 N.am      6 UNK        -0.4450 
     40 CA         30.3414   27.7079   -0.5690 C.3       6 UNK         0.0367 
     41 CB         31.8006   28.1199   -0.8526 C.3       6 UNK        -0.1929 
     42 C          29.3395   28.8145   -0.9323 C.2       6 UNK         0.5070 
     43 O          28.4138   28.5626   -1.7035 O.2       6 UNK        -0.5237 
     44 N          29.5441   30.0048   -0.3631 N.am      7 UNK        -0.4739 
     45 CA         28.6882   31.1810   -0.5122 C.3       7 UNK         0.0276 
     46 CB         29.0609   31.9350   -1.8044 C.3       7 UNK        -0.1927 
     47 C          28.7410   32.0861    0.7326 C.2       7 UNK         0.5013 
     48 O          28.3643   33.2559    0.6377 O.2       7 UNK        -0.5193 
     49 N          29.2271   31.5642    1.8669 N.am      8 UNK        -0.4253 
     50 CA         29.4335   32.3017    3.1108 C.3       8 UNK         0.0242 
     51 CB         30.7982   33.0239    3.0561 C.3       8 UNK        -0.2000 
     52 C          29.3000   31.3463    4.3078 C.2       8 UNK         0.4948 
     53 O          28.6975   30.2781    4.1782 O.2       8 UNK        -0.5275 
     54 N          29.8549   31.7539    5.4563 N.am      9 UNK        -0.4246 
     55 CA         29.8892   30.9841    6.7040 C.3       9 UNK         0.0261 
     56 CB         29.5832   31.9358    7.8744 C.3       9 UNK        -0.1959 
     57 C          31.2337   30.2625    6.9293 C.2       9 UNK         0.5033 
     58 O          31.3788   29.5826    7.9461 O.2       9 UNK        -0.5390 
     59 N          32.1920   30.4151    6.0063 N.am      10 UNK        -0.4215 
     60 CA         33.5192   29.8054    6.0439 C.3       10 UNK         0.0240 
     61 CB         34.4546   30.6337    6.9449 C.3       10 UNK        -0.1982 
     62 C          34.0647   29.7192    4.6138 C.2       10 UNK         0.4970 
     63 O          33.5894   30.4461    3.7389 O.2       10 UNK        -0.4916 
     64 N          35.0528   28.8390    4.4098 N.am      11 UNK        -0.4279 
     65 CA         35.7091   28.5979    3.1116 C.3       11 UNK         0.1003 
     66 C          36.7680   29.6668    2.7068 C.2       11 UNK         0.5709 
     67 N          37.1375   30.6000    3.5764 N.am      11 UNK        -0.7358 
     68 O          37.2553   29.6581    1.5793 O.2       11 UNK        -0.4999 
     69 C69        36.2720   27.1454    3.0369 C.3       12 UNK        -0.0954 
     70 S70        36.0967   26.3299    1.4086 S.3       12 UNK        -0.2268 
     71 C71        34.2939   26.2059    1.1395 C.3       12 UNK         0.0203 
     72 H72        25.2953   22.5223    4.2504 H         1 UNK         0.0888 
     73 H73        26.3743   23.8881    3.9700 H         1 UNK         0.0888 
     74 H74        24.8103   23.8155    3.1493 H         1 UNK         0.0888 
     75 H75        27.9608   23.5918    2.4166 H         1 UNK         0.3017 
     76 H76        28.0140   21.1676    0.7854 H         1 UNK         0.0873 
     77 H77        30.0409   23.4447    1.0895 H         1 UNK         0.0745 
     78 H78        30.2817   22.0358    0.0761 H         1 UNK         0.0745 
     79 H79        32.5248   21.4955    1.2944 H         1 UNK         0.0705 
     80 H80        32.6813   21.0519    2.9763 H         1 UNK         0.0705 
     81 H81        33.4858   23.6084    0.7934 H         1 UNK         0.1334 
     82 H82        33.5071   26.7810    3.6586 H         1 UNK         0.1417 
     83 H83        31.7014   23.0289    4.6559 H         1 UNK         0.1562 
     84 H84        32.9344   26.2785    5.9887 H         1 UNK         0.0748 
     85 H85        32.2986   24.7172    6.4313 H         1 UNK         0.0748 
     86 H86        31.6598   27.7753    4.2915 H         1 UNK         0.0940 
     87 H87        30.2022   28.4294    4.9323 H         1 UNK         0.0940 
     88 H88        30.0236   26.0558    3.0391 H         1 UNK         0.0703 
     89 H89        28.1779   28.1962    3.9012 H         1 UNK         0.3081 
     90 H90        25.5069   26.2716    3.4440 H         1 UNK         0.0719 
     91 H91        26.2993   29.2330    3.5930 H         1 UNK         0.0809 
     92 H92        24.7618   28.5516    4.1009 H         1 UNK         0.0809 
     93 H93        26.2333   28.1009    4.9379 H         1 UNK         0.0809 
     94 H94        24.7684   26.5664    1.3743 H         1 UNK         0.2990 
     95 H95        23.9324   27.7684   -0.4583 H         1 UNK         0.0690 
     96 H96        24.4544   29.1566   -2.4124 H         1 UNK         0.0788 
     97 H97        25.9898   29.6578   -1.7155 H         1 UNK         0.0788 
     98 H98        24.4787   30.1632   -0.9728 H         1 UNK         0.0788 
     99 H99        26.5327   27.2992   -1.7881 H         1 UNK         0.2993 
    100 H100       25.9430   23.9588   -2.1496 H         1 UNK         0.0949 
    101 H101       28.2343   25.9988   -2.1247 H         1 UNK         0.0767 
    102 H102       28.1595   24.5272   -3.0773 H         1 UNK         0.0767 
    103 H103       27.0512   25.8403   -3.4214 H         1 UNK         0.0767 
    104 H104       27.2023   24.5561    0.3780 H         1 UNK         0.3013 
    105 H105       29.6849   26.3153    0.8605 H         1 UNK         0.3121 
    106 H106       30.1263   26.8650   -1.2256 H         1 UNK         0.0774 
    107 H107       31.8941   28.5545   -1.8488 H         1 UNK         0.0815 
    108 H108       32.1812   28.8547   -0.1435 H         1 UNK         0.0815 
    109 H109       32.4574   27.2528   -0.8259 H         1 UNK         0.0815 
    110 H110       30.3077   30.0779    0.3005 H         1 UNK         0.2987 
    111 H111       27.6516   30.8529   -0.5947 H         1 UNK         0.0949 
    112 H112       28.4057   32.7920   -1.9652 H         1 UNK         0.0806 
    113 H113       30.0855   32.3065   -1.7686 H         1 UNK         0.0806 
    114 H114       28.9664   31.2934   -2.6806 H         1 UNK         0.0806 
    115 H115       29.4553   30.5757    1.9213 H         1 UNK         0.3010 
    116 H116       28.6416   33.0456    3.2202 H         1 UNK         0.0829 
    117 H117       30.8737   33.6579    2.1725 H         1 UNK         0.0813 
    118 H118       30.9507   33.6753    3.9168 H         1 UNK         0.0813 
    119 H119       31.6257   32.3138    3.0210 H         1 UNK         0.0813 
    120 H120       30.3110   32.6552    5.4758 H         1 UNK         0.3038 
    121 H121       29.1147   30.2142    6.6853 H         1 UNK         0.0769 
    122 H122       28.6162   32.4226    7.7465 H         1 UNK         0.0811 
    123 H123       30.3413   32.7138    7.9725 H         1 UNK         0.0811 
    124 H124       29.5470   31.3952    8.8212 H         1 UNK         0.0811 
    125 H125       31.9983   30.9307    5.1567 H         1 UNK         0.3204 
    126 H126       33.4326   28.7906    6.4383 H         1 UNK         0.0748 
    127 H127       34.5627   31.6559    6.5796 H         1 UNK         0.0771 
    128 H128       34.0790   30.6840    7.9672 H         1 UNK         0.0771 
    129 H129       35.4516   30.1943    6.9922 H         1 UNK         0.0771 
    130 H130       35.4184   28.3173    5.1931 H         1 UNK         0.2980 
    131 H131       34.9272   28.6986    2.3597 H         1 UNK         0.0545 
    132 H132       37.8192   31.2886    3.2988 H         1 UNK         0.3459 
    133 H133       36.7428   30.6253    4.5019 H         1 UNK         0.3459 
    134 H134       35.8001   26.4969    3.7743 H         1 UNK         0.0616 
    135 H135       37.3294   27.1284    3.3076 H         1 UNK         0.0616 
    136 H136       34.1365   25.8363    0.1255 H         1 UNK         0.0634 
    137 H137       33.8397   27.1957    1.1663 H         1 UNK         0.0634 
@<TRIPOS>BOND
     1    1    2 1    
     2    1   72 1    
     3    1   73 1    
     4    1   74 1    
     5    2    3 2    
     6    2    4 am   BACKBONE|DICT|INTERRES
     7    4    5 1    
     8    4   75 1    
     9    5    6 1    
    10    5   35 1    
    11    5   76 1    
    12    6    7 1    
    13    6   77 1    
    14    6   78 1    
    15    7    8 1    
    16    8    9 1    
    17    8   79 1    
    18    8   80 1    
    19    9   10 ar   
    20    9   14 ar   
    21   10   11 ar   
    22   10   81 1    
    23   11   12 ar   
    24   11   71 1    
    25   12   13 ar   
    26   12   82 1    
    27   13   14 ar   
    28   13   15 1    
    29   14   83 1    
    30   15   16 1    
    31   15   84 1    
    32   15   85 1    
    33   16   17 1    
    34   17   18 1    
    35   17   86 1    
    36   17   87 1    
    37   18   19 1    
    38   18   37 1    
    39   18   88 1    
    40   19   20 am   BACKBONE|DICT|INTERRES
    41   19   89 1    
    42   20   21 2    
    43   20   22 1    
    44   22   23 1    
    45   22   24 1    
    46   22   90 1    
    47   23   91 1    
    48   23   92 1    
    49   23   93 1    
    50   24   25 am   BACKBONE|DICT|INTERRES
    51   24   94 1    
    52   25   26 2    
    53   25   27 1    
    54   27   28 1    
    55   27   29 1    
    56   27   95 1    
    57   28   96 1    
    58   28   97 1    
    59   28   98 1    
    60   29   30 am   BACKBONE|DICT|INTERRES
    61   29   99 1    
    62   30   31 2    
    63   30   32 1    
    64   32   33 1    
    65   32   34 1    
    66   32  100 1    
    67   33  101 1    
    68   33  102 1    
    69   33  103 1    
    70   34   35 am   BACKBONE|DICT|INTERRES
    71   34  104 1    
    72   35   36 2    
    73   37   38 2    
    74   37   39 am   BACKBONE|DICT|INTERRES
    75   39   40 1    
    76   39  105 1    
    77   40   41 1    
    78   40   42 1    
    79   40  106 1    
    80   41  107 1    
    81   41  108 1    
    82   41  109 1    
    83   42   43 2    
    84   42   44 am   BACKBONE|DICT|INTERRES
    85   44   45 1    
    86   44  110 1    
    87   45   46 1    
    88   45   47 1    
    89   45  111 1    
    90   46  112 1    
    91   46  113 1    
    92   46  114 1    
    93   47   48 2    
    94   47   49 am   BACKBONE|DICT|INTERRES
    95   49   50 1    
    96   49  115 1    
    97   50   51 1    
    98   50   52 1    
    99   50  116 1    
   100   51  117 1    
   101   51  118 1    
   102   51  119 1    
   103   52   53 2    
   104   52   54 am   BACKBONE|DICT|INTERRES
   105   54   55 1    
   106   54  120 1    
   107   55   56 1    
   108   55   57 1    
   109   55  121 1    
   110   56  122 1    
   111   56  123 1    
   112   56  124 1    
   113   57   58 2    
   114   57   59 am   BACKBONE|DICT|INTERRES
   115   59   60 1    
   116   59  125 1    
   117   60   61 1    
   118   60   62 1    
   119   60  126 1    
   120   61  127 1    
   121   61  128 1    
   122   61  129 1    
   123   62   63 2    
   124   62   64 am   BACKBONE|DICT|INTERRES
   125   64   65 1    
   126   64  130 1    
   127   65   66 1    
   128   65   69 1    
   129   65  131 1    
   130   66   67 am   BACKBONE|DICT|INTERRES
   131   66   68 2    
   132   67  132 1    
   133   67  133 1    
   134   69   70 1    
   135   69  134 1    
   136   69  135 1    
   137   70   71 1    
   138   71  136 1    
   139   71  137 1    
@<TRIPOS>SUBSTRUCTURE
     1 UNK         1 GROUP             0       ****    0 ROOT    
