@<TRIPOS>MOLECULE
3R136
137   139    1
SMALL
USER_CHARGES


@<TRIPOS>ATOM
      1 CA         29.3457   23.9598    3.5578 C.3       0 UNK        -0.1979 
      2 C          28.8698   22.6624    2.9407 C.2       0 UNK         0.4864 
      3 O          27.8416   22.1251    3.3518 O.2       0 UNK        -0.5359 
      4 N          29.5918   22.1642    1.9314 N.am      1 UNK        -0.4318 
      5 CA         29.3130   20.9042    1.2303 C.3       1 UNK         0.0824 
      6 C6         30.6123   20.2500    0.6898 C.3       12 UNK        -0.0944 
      7 S7         31.8946   20.0739    1.9849 S.3       12 UNK        -0.2672 
      8 C8         33.2840   21.0572    1.3300 C.3       12 UNK         0.0333 
      9 C9         33.0185   22.5592    1.3311 C.ar      12 UNK        -0.0807 
     10 C10        33.3300   23.3422    2.4508 C.ar      12 UNK        -0.0894 
     11 C11        33.1594   24.7327    2.4180 C.ar      12 UNK        -0.0804 
     12 C12        32.6528   25.3317    1.2619 C.ar      12 UNK        -0.0824 
     13 C13        32.3191   24.5586    0.1469 C.ar      12 UNK        -0.0762 
     14 C14        32.5182   23.1776    0.1819 C.ar      12 UNK        -0.0782 
     15 C15        31.7576   25.2142   -1.1051 C.3       12 UNK         0.0230 
     16 S16        29.9731   24.8981   -1.2961 S.3       12 UNK        -0.2608 
     17 C17        29.2788   25.7102    0.1819 C.3       12 UNK        -0.0989 
     18 CA         28.6800   27.1123   -0.0895 C.3       5 UNK         0.0716 
     19 N          27.7141   27.4407    0.9590 N.am      5 UNK        -0.4135 
     20 C          26.9209   28.5137    1.0433 C.2       4 UNK         0.5031 
     21 O          26.9787   29.4855    0.2880 O.2       4 UNK        -0.5229 
     22 CA         25.8240   28.4197    2.1242 C.3       4 UNK         0.0329 
     23 CB         25.0958   29.7560    2.3544 C.3       4 UNK        -0.2001 
     24 N          24.8409   27.3889    1.7646 N.am      4 UNK        -0.4303 
     25 C          25.0466   26.0649    1.8377 C.2       3 UNK         0.5044 
     26 O          26.0619   25.5744    2.3390 O.2       3 UNK        -0.5152 
     27 CA         23.9953   25.1322    1.2027 C.3       3 UNK         0.0319 
     28 CB         22.8952   25.8684    0.4096 C.3       3 UNK        -0.2001 
     29 N          24.6887   24.2057    0.3047 N.am      3 UNK        -0.4354 
     30 C          25.0589   22.9568    0.6155 C.2       2 UNK         0.4964 
     31 O          24.6926   22.3669    1.6337 O.2       2 UNK        -0.5047 
     32 CA         26.0359   22.2493   -0.3401 C.3       2 UNK         0.0288 
     33 CB         26.4687   23.1074   -1.5543 C.3       2 UNK        -0.2113 
     34 N          27.1872   21.8682    0.4720 N.am      2 UNK        -0.4145 
     35 C          28.2200   21.0821    0.1458 C.2       1 UNK         0.5006 
     36 O          28.3326   20.5217   -0.9464 O.2       1 UNK        -0.5103 
     37 C          29.7754   28.1808   -0.2969 C.2       5 UNK         0.5055 
     38 O          30.1985   28.3980   -1.4336 O.2       5 UNK        -0.5220 
     39 N          30.2077   28.8352    0.7865 N.am      6 UNK        -0.4450 
     40 CA         31.2024   29.9048    0.7670 C.3       6 UNK         0.0367 
     41 CB         32.6127   29.3189    0.9743 C.3       6 UNK        -0.1929 
     42 C          30.8029   30.9238    1.8343 C.2       6 UNK         0.5070 
     43 O          31.5285   31.0926    2.8186 O.2       6 UNK        -0.5237 
     44 N          29.6052   31.5005    1.6539 N.am      7 UNK        -0.4739 
     45 CA         28.8954   32.3779    2.5900 C.3       7 UNK         0.0276 
     46 CB         27.6564   32.9592    1.8890 C.3       7 UNK        -0.1927 
     47 C          29.7777   33.5065    3.1449 C.2       7 UNK         0.5013 
     48 O          30.3194   34.2893    2.3617 O.2       7 UNK        -0.5193 
     49 N          29.9467   33.5265    4.4747 N.am      8 UNK        -0.4253 
     50 CA         30.8025   34.4114    5.2828 C.3       8 UNK         0.0242 
     51 CB         30.3941   35.8896    5.1246 C.3       8 UNK        -0.2000 
     52 C          32.3201   34.2318    5.0687 C.2       8 UNK         0.4948 
     53 O          33.0805   34.4516    6.0122 O.2       8 UNK        -0.5275 
     54 N          32.7388   33.8368    3.8602 N.am      9 UNK        -0.4246 
     55 CA         34.1258   33.5854    3.4733 C.3       9 UNK         0.0261 
     56 CB         34.2100   33.4330    1.9456 C.3       9 UNK        -0.1959 
     57 C          34.7382   32.3630    4.1749 C.2       9 UNK         0.5033 
     58 O          35.8955   32.4365    4.5924 O.2       9 UNK        -0.5390 
     59 N          33.9673   31.2729    4.2948 N.am      10 UNK        -0.4215 
     60 CA         34.4104   30.0322    4.9388 C.3       10 UNK         0.0240 
     61 CB         35.3153   29.2215    3.9896 C.3       10 UNK        -0.1982 
     62 C          33.2586   29.1604    5.4566 C.2       10 UNK         0.4970 
     63 O          33.4127   28.5575    6.5192 O.2       10 UNK        -0.4916 
     64 N          32.1495   29.0862    4.7122 N.am      11 UNK        -0.4279 
     65 CA         31.0067   28.2092    4.9893 C.3       11 UNK         0.1003 
     66 C          29.6951   28.9654    4.6669 C.2       11 UNK         0.5709 
     67 N          29.1967   29.7764    5.5899 N.am      11 UNK        -0.7358 
     68 O          29.1274   28.8182    3.5854 O.2       11 UNK        -0.4999 
     69 C69        31.0959   26.8606    4.2219 C.3       12 UNK        -0.0954 
     70 S70        32.3096   25.6815    4.9059 S.3       12 UNK        -0.2268 
     71 C71        33.5777   25.5977    3.6026 C.3       12 UNK         0.0203 
     72 H72        29.5624   23.8175    4.6162 H         1 UNK         0.0888 
     73 H73        30.2509   24.3191    3.0700 H         1 UNK         0.0888 
     74 H74        28.5733   24.7226    3.4619 H         1 UNK         0.0888 
     75 H75        30.4299   22.6440    1.6323 H         1 UNK         0.3017 
     76 H76        28.8930   20.2040    1.9560 H         1 UNK         0.0873 
     77 H77        30.3953   19.2516    0.3057 H         1 UNK         0.0745 
     78 H78        31.0065   20.8114   -0.1564 H         1 UNK         0.0745 
     79 H79        34.1685   20.8471    1.9332 H         1 UNK         0.0705 
     80 H80        33.5236   20.7137    0.3223 H         1 UNK         0.0705 
     81 H81        33.7325   22.8733    3.3385 H         1 UNK         0.1334 
     82 H82        32.5239   26.4035    1.2252 H         1 UNK         0.1417 
     83 H83        32.2904   22.5900   -0.6968 H         1 UNK         0.1562 
     84 H84        32.2784   24.8255   -1.9813 H         1 UNK         0.0748 
     85 H85        31.9427   26.2889   -1.0979 H         1 UNK         0.0748 
     86 H86        30.0045   25.7488    0.9930 H         1 UNK         0.0940 
     87 H87        28.4952   25.0384    0.5375 H         1 UNK         0.0940 
     88 H88        28.1054   27.0648   -1.0169 H         1 UNK         0.0703 
     89 H89        27.5050   26.6954    1.6158 H         1 UNK         0.3081 
     90 H90        26.3061   28.1388    3.0636 H         1 UNK         0.0719 
     91 H91        24.3316   29.6632    3.1262 H         1 UNK         0.0809 
     92 H92        24.6139   30.1209    1.4464 H         1 UNK         0.0809 
     93 H93        25.7955   30.5226    2.6875 H         1 UNK         0.0809 
     94 H94        23.9978   27.7141    1.3138 H         1 UNK         0.2990 
     95 H95        23.5166   24.5866    2.0183 H         1 UNK         0.0690 
     96 H96        22.1934   25.1583   -0.0287 H         1 UNK         0.0788 
     97 H97        23.3049   26.4672   -0.4052 H         1 UNK         0.0788 
     98 H98        22.3118   26.5271    1.0544 H         1 UNK         0.0788 
     99 H99        25.0652   24.6063   -0.5424 H         1 UNK         0.2993 
    100 H100       25.5471   21.3415   -0.6989 H         1 UNK         0.0949 
    101 H101       27.1413   22.5568   -2.2118 H         1 UNK         0.0767 
    102 H102       25.6104   23.3952   -2.1627 H         1 UNK         0.0767 
    103 H103       26.9877   24.0164   -1.2488 H         1 UNK         0.0767 
    104 H104       27.1493   22.1960    1.4339 H         1 UNK         0.3013 
    105 H105       29.7512   28.6722    1.6813 H         1 UNK         0.3121 
    106 H106       31.1817   30.4277   -0.1917 H         1 UNK         0.0774 
    107 H107       33.3629   30.1089    1.0245 H         1 UNK         0.0815 
    108 H108       32.6791   28.7429    1.8962 H         1 UNK         0.0815 
    109 H109       32.8909   28.6636    0.1491 H         1 UNK         0.0815 
    110 H110       29.0908   31.2482    0.8213 H         1 UNK         0.2987 
    111 H111       28.5562   31.7503    3.4157 H         1 UNK         0.0949 
    112 H112       27.9333   33.6041    1.0538 H         1 UNK         0.0806 
    113 H113       27.0100   32.1736    1.4987 H         1 UNK         0.0806 
    114 H114       27.0610   33.5578    2.5797 H         1 UNK         0.0806 
    115 H115       29.4859   32.8012    5.0066 H         1 UNK         0.3010 
    116 H116       30.6097   34.1311    6.3198 H         1 UNK         0.0829 
    117 H117       29.3354   36.0345    5.3393 H         1 UNK         0.0813 
    118 H118       30.9539   36.5224    5.8146 H         1 UNK         0.0813 
    119 H119       30.5873   36.2626    4.1184 H         1 UNK         0.0813 
    120 H120       32.0311   33.7241    3.1411 H         1 UNK         0.3038 
    121 H121       34.7133   34.4601    3.7602 H         1 UNK         0.0769 
    122 H122       33.6086   32.5967    1.5882 H         1 UNK         0.0811 
    123 H123       35.2382   33.2562    1.6268 H         1 UNK         0.0811 
    124 H124       33.8640   34.3338    1.4383 H         1 UNK         0.0811 
    125 H125       33.0262   31.3007    3.9067 H         1 UNK         0.3204 
    126 H126       35.0003   30.3016    5.8179 H         1 UNK         0.0748 
    127 H127       36.2316   29.7626    3.7534 H         1 UNK         0.0771 
    128 H128       35.6114   28.2742    4.4426 H         1 UNK         0.0771 
    129 H129       34.8133   28.9929    3.0500 H         1 UNK         0.0771 
    130 H130       32.0362   29.6900    3.9031 H         1 UNK         0.2980 
    131 H131       30.9692   27.9813    6.0565 H         1 UNK         0.0545 
    132 H132       29.6555   29.8921    6.4798 H         1 UNK         0.3459 
    133 H133       28.3202   30.2378    5.4120 H         1 UNK         0.3459 
    134 H134       30.1289   26.3647    4.2773 H         1 UNK         0.0616 
    135 H135       31.2859   27.0304    3.1623 H         1 UNK         0.0616 
    136 H136       33.8239   26.6085    3.2746 H         1 UNK         0.0634 
    137 H137       34.4922   25.1923    4.0377 H         1 UNK         0.0634 
@<TRIPOS>BOND
     1    1    2 1    
     2    1   72 1    
     3    1   73 1    
     4    1   74 1    
     5    2    3 2    
     6    2    4 am   BACKBONE|DICT|INTERRES
     7    4    5 1    
     8    4   75 1    
     9    5    6 1    
    10    5   35 1    
    11    5   76 1    
    12    6    7 1    
    13    6   77 1    
    14    6   78 1    
    15    7    8 1    
    16    8    9 1    
    17    8   79 1    
    18    8   80 1    
    19    9   10 ar   
    20    9   14 ar   
    21   10   11 ar   
    22   10   81 1    
    23   11   12 ar   
    24   11   71 1    
    25   12   13 ar   
    26   12   82 1    
    27   13   14 ar   
    28   13   15 1    
    29   14   83 1    
    30   15   16 1    
    31   15   84 1    
    32   15   85 1    
    33   16   17 1    
    34   17   18 1    
    35   17   86 1    
    36   17   87 1    
    37   18   19 1    
    38   18   37 1    
    39   18   88 1    
    40   19   20 am   BACKBONE|DICT|INTERRES
    41   19   89 1    
    42   20   21 2    
    43   20   22 1    
    44   22   23 1    
    45   22   24 1    
    46   22   90 1    
    47   23   91 1    
    48   23   92 1    
    49   23   93 1    
    50   24   25 am   BACKBONE|DICT|INTERRES
    51   24   94 1    
    52   25   26 2    
    53   25   27 1    
    54   27   28 1    
    55   27   29 1    
    56   27   95 1    
    57   28   96 1    
    58   28   97 1    
    59   28   98 1    
    60   29   30 am   BACKBONE|DICT|INTERRES
    61   29   99 1    
    62   30   31 2    
    63   30   32 1    
    64   32   33 1    
    65   32   34 1    
    66   32  100 1    
    67   33  101 1    
    68   33  102 1    
    69   33  103 1    
    70   34   35 am   BACKBONE|DICT|INTERRES
    71   34  104 1    
    72   35   36 2    
    73   37   38 2    
    74   37   39 am   BACKBONE|DICT|INTERRES
    75   39   40 1    
    76   39  105 1    
    77   40   41 1    
    78   40   42 1    
    79   40  106 1    
    80   41  107 1    
    81   41  108 1    
    82   41  109 1    
    83   42   43 2    
    84   42   44 am   BACKBONE|DICT|INTERRES
    85   44   45 1    
    86   44  110 1    
    87   45   46 1    
    88   45   47 1    
    89   45  111 1    
    90   46  112 1    
    91   46  113 1    
    92   46  114 1    
    93   47   48 2    
    94   47   49 am   BACKBONE|DICT|INTERRES
    95   49   50 1    
    96   49  115 1    
    97   50   51 1    
    98   50   52 1    
    99   50  116 1    
   100   51  117 1    
   101   51  118 1    
   102   51  119 1    
   103   52   53 2    
   104   52   54 am   BACKBONE|DICT|INTERRES
   105   54   55 1    
   106   54  120 1    
   107   55   56 1    
   108   55   57 1    
   109   55  121 1    
   110   56  122 1    
   111   56  123 1    
   112   56  124 1    
   113   57   58 2    
   114   57   59 am   BACKBONE|DICT|INTERRES
   115   59   60 1    
   116   59  125 1    
   117   60   61 1    
   118   60   62 1    
   119   60  126 1    
   120   61  127 1    
   121   61  128 1    
   122   61  129 1    
   123   62   63 2    
   124   62   64 am   BACKBONE|DICT|INTERRES
   125   64   65 1    
   126   64  130 1    
   127   65   66 1    
   128   65   69 1    
   129   65  131 1    
   130   66   67 am   BACKBONE|DICT|INTERRES
   131   66   68 2    
   132   67  132 1    
   133   67  133 1    
   134   69   70 1    
   135   69  134 1    
   136   69  135 1    
   137   70   71 1    
   138   71  136 1    
   139   71  137 1    
@<TRIPOS>SUBSTRUCTURE
     1 UNK         1 GROUP             0       ****    0 ROOT    
