@<TRIPOS>MOLECULE
3R136
137   139    1
SMALL
USER_CHARGES


@<TRIPOS>ATOM
      1 CA         30.3556   27.5733   -5.9143 C.3       0 UNK        -0.1979 
      2 C          29.8778   27.5537   -4.4697 C.2       0 UNK         0.4864 
      3 O          29.2660   28.5219   -4.0158 O.2       0 UNK        -0.5359 
      4 N          30.1591   26.4635   -3.7445 N.am      1 UNK        -0.4318 
      5 CA         29.7208   26.2460   -2.3641 C.3       1 UNK         0.0824 
      6 C6         30.5532   25.1279   -1.6889 C.3       12 UNK        -0.0944 
      7 S7         30.4101   25.1691    0.1241 S.3       12 UNK        -0.2672 
      8 C8         31.5366   23.8260    0.5906 C.3       12 UNK         0.0333 
      9 C9         31.7468   23.8395    2.0931 C.ar      12 UNK        -0.0807 
     10 C10        32.6991   24.6959    2.6497 C.ar      12 UNK        -0.0894 
     11 C11        32.8563   24.7794    4.0349 C.ar      12 UNK        -0.0804 
     12 C12        32.0636   23.9805    4.8651 C.ar      12 UNK        -0.0824 
     13 C13        31.1133   23.1099    4.3182 C.ar      12 UNK        -0.0762 
     14 C14        30.9649   23.0379    2.9294 C.ar      12 UNK        -0.0782 
     15 C15        30.2372   22.2601    5.2317 C.3       12 UNK         0.0230 
     16 S16        28.4615   22.6597    5.0875 S.3       12 UNK        -0.2608 
     17 C17        28.4475   24.4619    5.3747 C.3       12 UNK        -0.0989 
     18 CA         28.0264   25.2339    4.0915 C.3       5 UNK         0.0716 
     19 N          26.6261   25.0395    3.6947 N.am      5 UNK        -0.4135 
     20 C          25.5297   25.3135    4.4223 C.2       4 UNK         0.5031 
     21 O          25.5619   25.7202    5.5843 O.2       4 UNK        -0.5229 
     22 CA         24.1464   25.1344    3.7580 C.3       4 UNK         0.0329 
     23 CB         23.3891   26.4738    3.7189 C.3       4 UNK        -0.2001 
     24 N          24.2001   24.5970    2.3985 N.am      4 UNK        -0.4303 
     25 C          24.4678   23.3277    2.0641 C.2       3 UNK         0.5044 
     26 O          24.5911   22.4160    2.8817 O.2       3 UNK        -0.5152 
     27 CA         24.6655   23.0323    0.5628 C.3       3 UNK         0.0319 
     28 CB         23.4299   22.3201   -0.0113 C.3       3 UNK        -0.2001 
     29 N          24.9636   24.2150   -0.2600 N.am      3 UNK        -0.4354 
     30 C          26.0309   25.0135   -0.1139 C.2       2 UNK         0.4964 
     31 O          26.8784   24.8701    0.7714 O.2       2 UNK        -0.5047 
     32 CA         26.1078   26.2260   -1.0514 C.3       2 UNK         0.0288 
     33 CB         25.4644   27.4513   -0.3814 C.3       2 UNK        -0.2113 
     34 N          27.5017   26.5309   -1.3607 N.am      2 UNK        -0.4145 
     35 C          28.2118   25.9293   -2.3210 C.2       1 UNK         0.5006 
     36 O          27.7327   25.1326   -3.1341 O.2       1 UNK        -0.5103 
     37 C          28.3443   26.7379    4.1506 C.2       5 UNK         0.5055 
     38 O          28.6432   27.2745    5.2186 O.2       5 UNK        -0.5220 
     39 N          28.2517   27.3902    2.9873 N.am      6 UNK        -0.4450 
     40 CA         28.5999   28.7896    2.7753 C.3       6 UNK         0.0367 
     41 CB         27.3432   29.6675    2.8966 C.3       6 UNK        -0.1929 
     42 C          29.2294   28.9040    1.3855 C.2       6 UNK         0.5070 
     43 O          28.7857   28.2183    0.4621 O.2       6 UNK        -0.5237 
     44 N          30.2383   29.7666    1.2587 N.am      7 UNK        -0.4739 
     45 CA         31.0005   30.0119    0.0373 C.3       7 UNK         0.0276 
     46 CB         32.0457   28.8900   -0.1591 C.3       7 UNK        -0.1927 
     47 C          31.6259   31.4132    0.1369 C.2       7 UNK         0.5013 
     48 O          31.1221   32.2522    0.8886 O.2       7 UNK        -0.5193 
     49 N          32.7204   31.6468   -0.6012 N.am      8 UNK        -0.4253 
     50 CA         33.5468   32.8544   -0.4868 C.3       8 UNK         0.0242 
     51 CB         34.5038   32.9347   -1.6876 C.3       8 UNK        -0.2000 
     52 C          34.3335   32.9144    0.8379 C.2       8 UNK         0.4948 
     53 O          34.6174   34.0106    1.3231 O.2       8 UNK        -0.5275 
     54 N          34.6643   31.7420    1.3968 N.am      9 UNK        -0.4246 
     55 CA         35.2543   31.5823    2.7246 C.3       9 UNK         0.0261 
     56 CB         35.9665   30.2211    2.7912 C.3       9 UNK        -0.1959 
     57 C          34.1712   31.6718    3.8112 C.2       9 UNK         0.5033 
     58 O          33.0194   31.3011    3.5660 O.2       9 UNK        -0.5390 
     59 N          34.5677   32.1131    5.0116 N.am      10 UNK        -0.4215 
     60 CA         33.7085   32.2616    6.1920 C.3       10 UNK         0.0240 
     61 CB         34.3564   33.2757    7.1544 C.3       10 UNK        -0.1982 
     62 C          33.3949   30.9119    6.8727 C.2       10 UNK         0.4970 
     63 O          33.6919   30.7297    8.0552 O.2       10 UNK        -0.4916 
     64 N          32.8180   29.9851    6.1031 N.am      11 UNK        -0.4279 
     65 CA         32.3627   28.6602    6.5437 C.3       11 UNK         0.1003 
     66 C          31.1673   28.7335    7.5343 C.2       11 UNK         0.5709 
     67 N          31.0212   27.7382    8.3991 N.am      11 UNK        -0.7358 
     68 O          30.3649   29.6661    7.5159 O.2       11 UNK        -0.4999 
     69 C69        32.0262   27.7574    5.3303 C.3       12 UNK        -0.0954 
     70 S70        33.4740   27.4775    4.2569 S.3       12 UNK        -0.2268 
     71 C71        33.8797   25.7402    4.6247 C.3       12 UNK         0.0203 
     72 H72        31.0230   28.4192   -6.0773 H         1 UNK         0.0888 
     73 H73        30.8923   26.6624   -6.1792 H         1 UNK         0.0888 
     74 H74        29.5058   27.6742   -6.5888 H         1 UNK         0.0888 
     75 H75        30.6328   25.6862   -4.1818 H         1 UNK         0.3017 
     76 H76        29.8942   27.1788   -1.8222 H         1 UNK         0.0873 
     77 H77        31.6096   25.2550   -1.9315 H         1 UNK         0.0745 
     78 H78        30.2704   24.1392   -2.0566 H         1 UNK         0.0745 
     79 H79        32.4925   23.9491    0.0788 H         1 UNK         0.0705 
     80 H80        31.1237   22.8703    0.2641 H         1 UNK         0.0705 
     81 H81        33.2975   25.3252    2.0046 H         1 UNK         0.1334 
     82 H82        32.1794   24.0445    5.9384 H         1 UNK         0.1417 
     83 H83        30.2179   22.3814    2.5036 H         1 UNK         0.1562 
     84 H84        30.5374   22.3757    6.2744 H         1 UNK         0.0748 
     85 H85        30.3830   21.2070    4.9873 H         1 UNK         0.0748 
     86 H86        29.4377   24.7787    5.7052 H         1 UNK         0.0940 
     87 H87        27.7868   24.6824    6.2131 H         1 UNK         0.0940 
     88 H88        28.6274   24.8441    3.2675 H         1 UNK         0.0703 
     89 H89        26.5016   24.7571    2.7279 H         1 UNK         0.3081 
     90 H90        23.5796   24.4378    4.3793 H         1 UNK         0.0719 
     91 H91        23.9173   27.2187    3.1220 H         1 UNK         0.0809 
     92 H92        22.3892   26.3538    3.3012 H         1 UNK         0.0809 
     93 H93        23.2691   26.8868    4.7215 H         1 UNK         0.0809 
     94 H94        24.1056   25.2654    1.6484 H         1 UNK         0.2990 
     95 H95        25.5189   22.3558    0.4819 H         1 UNK         0.0690 
     96 H96        23.5913   22.0143   -1.0453 H         1 UNK         0.0788 
     97 H97        22.5459   22.9585    0.0179 H         1 UNK         0.0788 
     98 H98        23.1989   21.4180    0.5574 H         1 UNK         0.0788 
     99 H99        24.3031   24.4216   -0.9963 H         1 UNK         0.2993 
    100 H100       25.5713   26.0065   -1.9773 H         1 UNK         0.0949 
    101 H101       25.5387   28.3341   -1.0168 H         1 UNK         0.0767 
    102 H102       24.4051   27.2820   -0.1843 H         1 UNK         0.0767 
    103 H103       25.9419   27.6854    0.5706 H         1 UNK         0.0767 
    104 H104       27.9903   27.1333   -0.6967 H         1 UNK         0.3013 
    105 H105       28.0548   26.8746    2.1367 H         1 UNK         0.3121 
    106 H106       29.3340   29.1066    3.5191 H         1 UNK         0.0774 
    107 H107       27.5874   30.7194    2.7443 H         1 UNK         0.0815 
    108 H108       26.5877   29.3972    2.1586 H         1 UNK         0.0815 
    109 H109       26.8929   29.5778    3.8853 H         1 UNK         0.0815 
    110 H110       30.4984   30.3617    2.0363 H         1 UNK         0.2987 
    111 H111       30.3160   30.0205   -0.8141 H         1 UNK         0.0949 
    112 H112       32.5520   28.9725   -1.1211 H         1 UNK         0.0806 
    113 H113       32.8042   28.9049    0.6248 H         1 UNK         0.0806 
    114 H114       31.5797   27.9058   -0.1386 H         1 UNK         0.0806 
    115 H115       33.0554   30.9214   -1.2186 H         1 UNK         0.3010 
    116 H116       32.8871   33.7245   -0.5168 H         1 UNK         0.0829 
    117 H117       33.9569   32.9648   -2.6302 H         1 UNK         0.0813 
    118 H118       35.1127   33.8387   -1.6397 H         1 UNK         0.0813 
    119 H119       35.1862   32.0844   -1.7205 H         1 UNK         0.0813 
    120 H120       34.3472   30.8977    0.9462 H         1 UNK         0.3038 
    121 H121       35.9891   32.3741    2.8865 H         1 UNK         0.0769 
    122 H122       36.4255   30.0638    3.7681 H         1 UNK         0.0811 
    123 H123       36.7599   30.1518    2.0468 H         1 UNK         0.0811 
    124 H124       35.2747   29.3950    2.6215 H         1 UNK         0.0811 
    125 H125       35.5416   32.3492    5.1393 H         1 UNK         0.3204 
    126 H126       32.7525   32.6808    5.8703 H         1 UNK         0.0748 
    127 H127       33.7223   33.4493    8.0250 H         1 UNK         0.0771 
    128 H128       35.3236   32.9271    7.5190 H         1 UNK         0.0771 
    129 H129       34.5075   34.2412    6.6710 H         1 UNK         0.0771 
    130 H130       32.6400   30.2254    5.1326 H         1 UNK         0.2980 
    131 H131       33.1957   28.2030    7.0816 H         1 UNK         0.0545 
    132 H132       30.2451   27.7613    9.0415 H         1 UNK         0.3459 
    133 H133       31.6691   26.9670    8.4239 H         1 UNK         0.3459 
    134 H134       31.6297   26.7959    5.6601 H         1 UNK         0.0616 
    135 H135       31.2421   28.2128    4.7243 H         1 UNK         0.0616 
    136 H136       33.9679   25.6115    5.7046 H         1 UNK         0.0634 
    137 H137       34.8609   25.5134    4.2057 H         1 UNK         0.0634 
@<TRIPOS>BOND
     1    1    2 1    
     2    1   72 1    
     3    1   73 1    
     4    1   74 1    
     5    2    3 2    
     6    2    4 am   BACKBONE|DICT|INTERRES
     7    4    5 1    
     8    4   75 1    
     9    5    6 1    
    10    5   35 1    
    11    5   76 1    
    12    6    7 1    
    13    6   77 1    
    14    6   78 1    
    15    7    8 1    
    16    8    9 1    
    17    8   79 1    
    18    8   80 1    
    19    9   10 ar   
    20    9   14 ar   
    21   10   11 ar   
    22   10   81 1    
    23   11   12 ar   
    24   11   71 1    
    25   12   13 ar   
    26   12   82 1    
    27   13   14 ar   
    28   13   15 1    
    29   14   83 1    
    30   15   16 1    
    31   15   84 1    
    32   15   85 1    
    33   16   17 1    
    34   17   18 1    
    35   17   86 1    
    36   17   87 1    
    37   18   19 1    
    38   18   37 1    
    39   18   88 1    
    40   19   20 am   BACKBONE|DICT|INTERRES
    41   19   89 1    
    42   20   21 2    
    43   20   22 1    
    44   22   23 1    
    45   22   24 1    
    46   22   90 1    
    47   23   91 1    
    48   23   92 1    
    49   23   93 1    
    50   24   25 am   BACKBONE|DICT|INTERRES
    51   24   94 1    
    52   25   26 2    
    53   25   27 1    
    54   27   28 1    
    55   27   29 1    
    56   27   95 1    
    57   28   96 1    
    58   28   97 1    
    59   28   98 1    
    60   29   30 am   BACKBONE|DICT|INTERRES
    61   29   99 1    
    62   30   31 2    
    63   30   32 1    
    64   32   33 1    
    65   32   34 1    
    66   32  100 1    
    67   33  101 1    
    68   33  102 1    
    69   33  103 1    
    70   34   35 am   BACKBONE|DICT|INTERRES
    71   34  104 1    
    72   35   36 2    
    73   37   38 2    
    74   37   39 am   BACKBONE|DICT|INTERRES
    75   39   40 1    
    76   39  105 1    
    77   40   41 1    
    78   40   42 1    
    79   40  106 1    
    80   41  107 1    
    81   41  108 1    
    82   41  109 1    
    83   42   43 2    
    84   42   44 am   BACKBONE|DICT|INTERRES
    85   44   45 1    
    86   44  110 1    
    87   45   46 1    
    88   45   47 1    
    89   45  111 1    
    90   46  112 1    
    91   46  113 1    
    92   46  114 1    
    93   47   48 2    
    94   47   49 am   BACKBONE|DICT|INTERRES
    95   49   50 1    
    96   49  115 1    
    97   50   51 1    
    98   50   52 1    
    99   50  116 1    
   100   51  117 1    
   101   51  118 1    
   102   51  119 1    
   103   52   53 2    
   104   52   54 am   BACKBONE|DICT|INTERRES
   105   54   55 1    
   106   54  120 1    
   107   55   56 1    
   108   55   57 1    
   109   55  121 1    
   110   56  122 1    
   111   56  123 1    
   112   56  124 1    
   113   57   58 2    
   114   57   59 am   BACKBONE|DICT|INTERRES
   115   59   60 1    
   116   59  125 1    
   117   60   61 1    
   118   60   62 1    
   119   60  126 1    
   120   61  127 1    
   121   61  128 1    
   122   61  129 1    
   123   62   63 2    
   124   62   64 am   BACKBONE|DICT|INTERRES
   125   64   65 1    
   126   64  130 1    
   127   65   66 1    
   128   65   69 1    
   129   65  131 1    
   130   66   67 am   BACKBONE|DICT|INTERRES
   131   66   68 2    
   132   67  132 1    
   133   67  133 1    
   134   69   70 1    
   135   69  134 1    
   136   69  135 1    
   137   70   71 1    
   138   71  136 1    
   139   71  137 1    
@<TRIPOS>SUBSTRUCTURE
     1 UNK         1 GROUP             0       ****    0 ROOT    
