@<TRIPOS>MOLECULE
3R136
137   139    1
SMALL
USER_CHARGES


@<TRIPOS>ATOM
      1 CA         27.7559   22.0040   -2.5197 C.3       0 UNK        -0.1979 
      2 C          28.3119   22.8168   -1.3608 C.2       0 UNK         0.4864 
      3 O          28.2149   24.0442   -1.3803 O.2       0 UNK        -0.5359 
      4 N          28.8815   22.1402   -0.3517 N.am      1 UNK        -0.4318 
      5 CA         29.4937   22.7296    0.8472 C.3       1 UNK         0.0824 
      6 C6         30.0546   21.6448    1.8048 C.3       12 UNK        -0.0944 
      7 S7         31.7714   21.2135    1.3720 S.3       12 UNK        -0.2672 
      8 C8         32.6942   21.8437    2.8163 C.3       12 UNK         0.0333 
      9 C9         32.4675   23.3311    3.0653 C.ar      12 UNK        -0.0807 
     10 C10        32.9869   24.2795    2.1830 C.ar      12 UNK        -0.0894 
     11 C11        32.7999   25.6463    2.4129 C.ar      12 UNK        -0.0804 
     12 C12        32.0609   26.0583    3.5271 C.ar      12 UNK        -0.0824 
     13 C13        31.5373   25.1214    4.4297 C.ar      12 UNK        -0.0762 
     14 C14        31.7537   23.7605    4.1884 C.ar      12 UNK        -0.0782 
     15 C15        30.7626   25.5150    5.6932 C.3       12 UNK         0.0230 
     16 S16        30.0083   27.1812    5.7093 S.3       12 UNK        -0.2608 
     17 C17        28.7927   27.0538    4.3624 C.3       12 UNK        -0.0989 
     18 CA         28.9999   28.1599    3.2896 C.3       5 UNK         0.0716 
     19 N          28.9800   27.6260    1.9244 N.am      5 UNK        -0.4135 
     20 C          29.2508   28.3305    0.8162 C.2       4 UNK         0.5031 
     21 O          29.5923   29.5125    0.8204 O.2       4 UNK        -0.5229 
     22 CA         29.0535   27.6164   -0.5321 C.3       4 UNK         0.0329 
     23 CB         30.2695   26.7475   -0.8828 C.3       4 UNK        -0.2001 
     24 N          27.8351   26.8051   -0.5689 N.am      4 UNK        -0.4303 
     25 C          26.5944   27.3014   -0.4560 C.2       3 UNK         0.5044 
     26 O          26.3425   28.5011   -0.3549 O.2       3 UNK        -0.5152 
     27 CA         25.4425   26.2881   -0.3873 C.3       3 UNK         0.0319 
     28 CB         25.0923   25.7502   -1.7838 C.3       3 UNK        -0.2001 
     29 N          25.7418   25.1773    0.5171 N.am      3 UNK        -0.4354 
     30 C          25.8946   25.3010    1.8438 C.2       2 UNK         0.4964 
     31 O          25.7612   26.3607    2.4574 O.2       2 UNK        -0.5047 
     32 CA         26.3145   24.0334    2.6079 C.3       2 UNK         0.0288 
     33 CB         25.0922   23.1553    2.9195 C.3       2 UNK        -0.2113 
     34 N          27.3276   23.2385    1.9039 N.am      2 UNK        -0.4145 
     35 C          28.5519   23.6901    1.5929 C.2       1 UNK         0.5006 
     36 O          28.9390   24.8303    1.8367 O.2       1 UNK        -0.5103 
     37 C          27.9932   29.3114    3.4848 C.2       5 UNK         0.5055 
     38 O          28.3328   30.3144    4.1126 O.2       5 UNK        -0.5220 
     39 N          26.7780   29.1459    2.9417 N.am      6 UNK        -0.4450 
     40 CA         25.7214   30.1577    2.9599 C.3       6 UNK         0.0367 
     41 CB         24.3860   29.5137    2.5538 C.3       6 UNK        -0.1929 
     42 C          26.0384   31.3675    2.0640 C.2       6 UNK         0.5070 
     43 O          25.7737   32.5002    2.4681 O.2       6 UNK        -0.5237 
     44 N          26.5815   31.1118    0.8657 N.am      7 UNK        -0.4739 
     45 CA         26.9389   32.1360   -0.1183 C.3       7 UNK         0.0276 
     46 CB         27.1857   31.4732   -1.4832 C.3       7 UNK        -0.1927 
     47 C          28.1539   32.9820    0.2957 C.2       7 UNK         0.5013 
     48 O          28.1290   34.1988    0.1030 O.2       7 UNK        -0.5193 
     49 N          29.1899   32.3272    0.8330 N.am      8 UNK        -0.4253 
     50 CA         30.4422   32.9406    1.2636 C.3       8 UNK         0.0242 
     51 CB         31.6070   32.3336    0.4521 C.3       8 UNK        -0.2000 
     52 C          30.5839   32.7766    2.7840 C.2       8 UNK         0.4948 
     53 O          29.9411   33.5185    3.5287 O.2       8 UNK        -0.5275 
     54 N          31.4344   31.8419    3.2179 N.am      9 UNK        -0.4246 
     55 CA         31.7705   31.5341    4.6045 C.3       9 UNK         0.0261 
     56 CB         32.6970   32.6263    5.1796 C.3       9 UNK        -0.1959 
     57 C          32.4424   30.1539    4.6292 C.2       9 UNK         0.5033 
     58 O          32.6355   29.5572    3.5660 O.2       9 UNK        -0.5390 
     59 N          32.7915   29.6766    5.8324 N.am      10 UNK        -0.4215 
     60 CA         33.4806   28.4049    6.0772 C.3       10 UNK         0.0240 
     61 CB         33.6775   28.2126    7.5894 C.3       10 UNK        -0.1982 
     62 C          34.8222   28.3032    5.3329 C.2       10 UNK         0.4970 
     63 O          35.6508   29.2077    5.4619 O.2       10 UNK        -0.4916 
     64 N          35.0047   27.2093    4.5845 N.am      11 UNK        -0.4279 
     65 CA         36.1808   26.9620    3.7395 C.3       11 UNK         0.1003 
     66 C          36.7253   25.5059    3.8158 C.2       11 UNK         0.5709 
     67 N          36.1881   24.6370    4.6656 N.am      11 UNK        -0.7358 
     68 O          37.6789   25.1657    3.1194 O.2       11 UNK        -0.4999 
     69 C69        35.9695   27.5202    2.3004 C.3       12 UNK        -0.0954 
     70 S70        35.1399   26.4201    1.0983 S.3       12 UNK        -0.2268 
     71 C71        33.3660   26.6721    1.4367 C.3       12 UNK         0.0203 
     72 H72        26.6905   22.1999   -2.6370 H         1 UNK         0.0888 
     73 H73        28.2575   22.2834   -3.4457 H         1 UNK         0.0888 
     74 H74        27.8905   20.9329   -2.3700 H         1 UNK         0.0888 
     75 H75        28.9383   21.1336   -0.4130 H         1 UNK         0.3017 
     76 H76        30.3206   23.3529    0.4985 H         1 UNK         0.0873 
     77 H77        29.4449   20.7402    1.7746 H         1 UNK         0.0745 
     78 H78        30.0314   21.9653    2.8478 H         1 UNK         0.0745 
     79 H79        33.7590   21.6671    2.6573 H         1 UNK         0.0705 
     80 H80        32.4178   21.2580    3.6945 H         1 UNK         0.0705 
     81 H81        33.5410   23.9507    1.3144 H         1 UNK         0.1334 
     82 H82        31.8973   27.1136    3.6833 H         1 UNK         0.1417 
     83 H83        31.3612   23.0282    4.8810 H         1 UNK         0.1562 
     84 H84        31.4427   25.4454    6.5430 H         1 UNK         0.0748 
     85 H85        29.9698   24.7881    5.8772 H         1 UNK         0.0748 
     86 H86        27.7884   27.0666    4.7918 H         1 UNK         0.0940 
     87 H87        28.8879   26.0621    3.9284 H         1 UNK         0.0940 
     88 H88        29.9939   28.5957    3.4085 H         1 UNK         0.0703 
     89 H89        28.7847   26.6305    1.8290 H         1 UNK         0.3081 
     90 H90        28.9565   28.3846   -1.3018 H         1 UNK         0.0719 
     91 H91        30.1372   26.2493   -1.8434 H         1 UNK         0.0809 
     92 H92        31.1689   27.3591   -0.9571 H         1 UNK         0.0809 
     93 H93        30.4496   25.9781   -0.1311 H         1 UNK         0.0809 
     94 H94        27.9543   25.8005   -0.6836 H         1 UNK         0.2990 
     95 H95        24.5660   26.8095    0.0036 H         1 UNK         0.0690 
     96 H96        24.8424   26.5671   -2.4623 H         1 UNK         0.0788 
     97 H97        24.2295   25.0849   -1.7476 H         1 UNK         0.0788 
     98 H98        25.9218   25.2003   -2.2294 H         1 UNK         0.0788 
     99 H99        25.9199   24.2791    0.0924 H         1 UNK         0.2993 
    100 H100       26.7514   24.3577    3.5551 H         1 UNK         0.0949 
    101 H101       24.6285   22.7677    2.0114 H         1 UNK         0.0767 
    102 H102       25.3635   22.3064    3.5474 H         1 UNK         0.0767 
    103 H103       24.3315   23.7234    3.4572 H         1 UNK         0.0767 
    104 H104       27.0794   22.2930    1.6512 H         1 UNK         0.3013 
    105 H105       26.5576   28.2625    2.4922 H         1 UNK         0.3121 
    106 H106       25.6227   30.5216    3.9850 H         1 UNK         0.0774 
    107 H107       24.4237   29.1068    1.5428 H         1 UNK         0.0815 
    108 H108       23.5760   30.2437    2.5825 H         1 UNK         0.0815 
    109 H109       24.1161   28.7018    3.2294 H         1 UNK         0.0815 
    110 H110       26.7010   30.1429    0.5795 H         1 UNK         0.2987 
    111 H111       26.0878   32.8129   -0.2214 H         1 UNK         0.0949 
    112 H112       28.0054   30.7551   -1.4397 H         1 UNK         0.0806 
    113 H113       26.2984   30.9454   -1.8333 H         1 UNK         0.0806 
    114 H114       27.4407   32.2167   -2.2396 H         1 UNK         0.0806 
    115 H115       29.1312   31.3163    0.9449 H         1 UNK         0.3010 
    116 H116       30.4324   34.0151    1.0694 H         1 UNK         0.0829 
    117 H117       31.5043   32.5693   -0.6072 H         1 UNK         0.0813 
    118 H118       32.5669   32.7375    0.7772 H         1 UNK         0.0813 
    119 H119       31.6538   31.2475    0.5396 H         1 UNK         0.0813 
    120 H120       31.8702   31.2102    2.5552 H         1 UNK         0.3038 
    121 H121       30.8485   31.4769    5.1870 H         1 UNK         0.0769 
    122 H122       33.6376   32.6823    4.6302 H         1 UNK         0.0811 
    123 H123       32.9400   32.4358    6.2252 H         1 UNK         0.0811 
    124 H124       32.2295   33.6101    5.1395 H         1 UNK         0.0811 
    125 H125       32.6079   30.2457    6.6454 H         1 UNK         0.3204 
    126 H126       32.8316   27.6064    5.7268 H         1 UNK         0.0748 
    127 H127       34.1748   27.2650    7.8011 H         1 UNK         0.0771 
    128 H128       34.2894   29.0057    8.0214 H         1 UNK         0.0771 
    129 H129       32.7221   28.1986    8.1148 H         1 UNK         0.0771 
    130 H130       34.2652   26.5261    4.5038 H         1 UNK         0.2980 
    131 H131       37.0042   27.5373    4.1666 H         1 UNK         0.0545 
    132 H132       36.5631   23.7026    4.7053 H         1 UNK         0.3459 
    133 H133       35.4424   24.9023    5.2864 H         1 UNK         0.3459 
    134 H134       35.4430   28.4758    2.3312 H         1 UNK         0.0616 
    135 H135       36.9466   27.7509    1.8732 H         1 UNK         0.0616 
    136 H136       32.8298   26.5730    0.4945 H         1 UNK         0.0634 
    137 H137       33.1956   27.6920    1.7821 H         1 UNK         0.0634 
@<TRIPOS>BOND
     1    1    2 1    
     2    1   72 1    
     3    1   73 1    
     4    1   74 1    
     5    2    3 2    
     6    2    4 am   BACKBONE|DICT|INTERRES
     7    4    5 1    
     8    4   75 1    
     9    5    6 1    
    10    5   35 1    
    11    5   76 1    
    12    6    7 1    
    13    6   77 1    
    14    6   78 1    
    15    7    8 1    
    16    8    9 1    
    17    8   79 1    
    18    8   80 1    
    19    9   10 ar   
    20    9   14 ar   
    21   10   11 ar   
    22   10   81 1    
    23   11   12 ar   
    24   11   71 1    
    25   12   13 ar   
    26   12   82 1    
    27   13   14 ar   
    28   13   15 1    
    29   14   83 1    
    30   15   16 1    
    31   15   84 1    
    32   15   85 1    
    33   16   17 1    
    34   17   18 1    
    35   17   86 1    
    36   17   87 1    
    37   18   19 1    
    38   18   37 1    
    39   18   88 1    
    40   19   20 am   BACKBONE|DICT|INTERRES
    41   19   89 1    
    42   20   21 2    
    43   20   22 1    
    44   22   23 1    
    45   22   24 1    
    46   22   90 1    
    47   23   91 1    
    48   23   92 1    
    49   23   93 1    
    50   24   25 am   BACKBONE|DICT|INTERRES
    51   24   94 1    
    52   25   26 2    
    53   25   27 1    
    54   27   28 1    
    55   27   29 1    
    56   27   95 1    
    57   28   96 1    
    58   28   97 1    
    59   28   98 1    
    60   29   30 am   BACKBONE|DICT|INTERRES
    61   29   99 1    
    62   30   31 2    
    63   30   32 1    
    64   32   33 1    
    65   32   34 1    
    66   32  100 1    
    67   33  101 1    
    68   33  102 1    
    69   33  103 1    
    70   34   35 am   BACKBONE|DICT|INTERRES
    71   34  104 1    
    72   35   36 2    
    73   37   38 2    
    74   37   39 am   BACKBONE|DICT|INTERRES
    75   39   40 1    
    76   39  105 1    
    77   40   41 1    
    78   40   42 1    
    79   40  106 1    
    80   41  107 1    
    81   41  108 1    
    82   41  109 1    
    83   42   43 2    
    84   42   44 am   BACKBONE|DICT|INTERRES
    85   44   45 1    
    86   44  110 1    
    87   45   46 1    
    88   45   47 1    
    89   45  111 1    
    90   46  112 1    
    91   46  113 1    
    92   46  114 1    
    93   47   48 2    
    94   47   49 am   BACKBONE|DICT|INTERRES
    95   49   50 1    
    96   49  115 1    
    97   50   51 1    
    98   50   52 1    
    99   50  116 1    
   100   51  117 1    
   101   51  118 1    
   102   51  119 1    
   103   52   53 2    
   104   52   54 am   BACKBONE|DICT|INTERRES
   105   54   55 1    
   106   54  120 1    
   107   55   56 1    
   108   55   57 1    
   109   55  121 1    
   110   56  122 1    
   111   56  123 1    
   112   56  124 1    
   113   57   58 2    
   114   57   59 am   BACKBONE|DICT|INTERRES
   115   59   60 1    
   116   59  125 1    
   117   60   61 1    
   118   60   62 1    
   119   60  126 1    
   120   61  127 1    
   121   61  128 1    
   122   61  129 1    
   123   62   63 2    
   124   62   64 am   BACKBONE|DICT|INTERRES
   125   64   65 1    
   126   64  130 1    
   127   65   66 1    
   128   65   69 1    
   129   65  131 1    
   130   66   67 am   BACKBONE|DICT|INTERRES
   131   66   68 2    
   132   67  132 1    
   133   67  133 1    
   134   69   70 1    
   135   69  134 1    
   136   69  135 1    
   137   70   71 1    
   138   71  136 1    
   139   71  137 1    
@<TRIPOS>SUBSTRUCTURE
     1 UNK         1 GROUP             0       ****    0 ROOT    
