@<TRIPOS>MOLECULE
3R136
137   139    1
SMALL
USER_CHARGES


@<TRIPOS>ATOM
      1 CA         28.9597   26.7787    6.4749 C.3       0 UNK        -0.1979 
      2 C          28.9716   26.6187    4.9634 C.2       0 UNK         0.4864 
      3 O          28.3002   25.7332    4.4347 O.2       0 UNK        -0.5359 
      4 N          29.7125   27.4838    4.2590 N.am      1 UNK        -0.4318 
      5 CA         29.8372   27.5001    2.7979 C.3       1 UNK         0.0824 
      6 C6         30.9682   28.4628    2.3729 C.3       12 UNK        -0.0944 
      7 S7         31.5743   28.2584    0.6693 S.3       12 UNK        -0.2672 
      8 C8         33.1604   27.4105    0.9350 C.3       12 UNK         0.0333 
      9 C9         32.9187   25.9175    0.9529 C.ar      12 UNK        -0.0807 
     10 C10        32.5258   25.2740    2.1263 C.ar      12 UNK        -0.0894 
     11 C11        32.1805   23.9206    2.1092 C.ar      12 UNK        -0.0804 
     12 C12        32.2317   23.2140    0.8994 C.ar      12 UNK        -0.0824 
     13 C13        32.6274   23.8556   -0.2806 C.ar      12 UNK        -0.0762 
     14 C14        33.0033   25.1978   -0.2365 C.ar      12 UNK        -0.0782 
     15 C15        32.6341   23.1230   -1.6147 C.3       12 UNK         0.0230 
     16 S16        30.9966   23.1226   -2.4232 S.3       12 UNK        -0.2608 
     17 C17        30.6488   24.8952   -2.7531 C.3       12 UNK        -0.0989 
     18 CA         29.1855   25.2850   -2.4159 C.3       5 UNK         0.0716 
     19 N          28.7913   24.8477   -1.0706 N.am      5 UNK        -0.4135 
     20 C          27.5473   24.5154   -0.7004 C.2       4 UNK         0.5031 
     21 O          26.5572   24.6738   -1.4162 O.2       4 UNK        -0.5229 
     22 CA         27.3663   23.8760    0.6849 C.3       4 UNK         0.0329 
     23 CB         28.6852   23.5314    1.4051 C.3       4 UNK        -0.2001 
     24 N          26.5931   24.7824    1.5254 N.am      4 UNK        -0.4303 
     25 C          25.4357   24.4928    2.1338 C.2       3 UNK         0.5044 
     26 O          24.8575   23.4105    2.0210 O.2       3 UNK        -0.5152 
     27 CA         24.8152   25.5715    3.0443 C.3       3 UNK         0.0319 
     28 CB         24.7224   25.0682    4.4955 C.3       3 UNK        -0.2001 
     29 N          25.5755   26.8228    3.0361 N.am      3 UNK        -0.4354 
     30 C          25.3469   27.8558    2.2130 C.2       2 UNK         0.4964 
     31 O          24.4192   27.8970    1.4051 O.2       2 UNK        -0.5047 
     32 CA         26.3292   29.0402    2.2870 C.3       2 UNK         0.0288 
     33 CB         25.7788   30.1376    3.2116 C.3       2 UNK        -0.2113 
     34 N          27.6766   28.6725    2.7328 N.am      2 UNK        -0.4145 
     35 C          28.4982   27.8180    2.1058 C.2       1 UNK         0.5006 
     36 O          28.2023   27.2366    1.0619 O.2       1 UNK        -0.5103 
     37 C          28.8828   26.7768   -2.7133 C.2       5 UNK         0.5055 
     38 O          29.1639   27.2208   -3.8275 O.2       5 UNK        -0.5220 
     39 N          28.2783   27.4971   -1.7557 N.am      6 UNK        -0.4450 
     40 CA         27.6882   28.8369   -1.8429 C.3       6 UNK         0.0367 
     41 CB         26.6491   28.9353   -2.9808 C.3       6 UNK        -0.1929 
     42 C          28.7233   29.9742   -1.8815 C.2       6 UNK         0.5070 
     43 O          29.0583   30.4781   -2.9550 O.2       6 UNK        -0.5237 
     44 N          29.1545   30.4022   -0.6908 N.am      7 UNK        -0.4739 
     45 CA         29.8849   31.6415   -0.4203 C.3       7 UNK         0.0276 
     46 CB         31.3791   31.5132   -0.7834 C.3       7 UNK        -0.1927 
     47 C          29.6641   32.0073    1.0579 C.2       7 UNK         0.5013 
     48 O          28.9084   31.3212    1.7490 O.2       7 UNK        -0.5193 
     49 N          30.3143   33.0798    1.5254 N.am      8 UNK        -0.4253 
     50 CA         30.1649   33.6098    2.8876 C.3       8 UNK         0.0242 
     51 CB         30.4966   35.1127    2.8638 C.3       8 UNK        -0.2000 
     52 C          31.0106   32.8889    3.9595 C.2       8 UNK         0.4948 
     53 O          30.8743   33.2175    5.1395 O.2       8 UNK        -0.5275 
     54 N          31.8956   31.9702    3.5485 N.am      9 UNK        -0.4246 
     55 CA         32.8383   31.2579    4.4176 C.3       9 UNK         0.0261 
     56 CB         33.9046   30.5816    3.5384 C.3       9 UNK        -0.1959 
     57 C          32.1706   30.2482    5.3744 C.2       9 UNK         0.5033 
     58 O          31.0405   29.8109    5.1461 O.2       9 UNK        -0.5390 
     59 N          32.9046   29.8694    6.4270 N.am      10 UNK        -0.4215 
     60 CA         32.4294   28.9868    7.4977 C.3       10 UNK         0.0240 
     61 CB         33.1479   29.3756    8.8023 C.3       10 UNK        -0.1982 
     62 C          32.6074   27.4805    7.2203 C.2       10 UNK         0.4970 
     63 O          32.1381   26.6837    8.0328 O.2       10 UNK        -0.4916 
     64 N          33.2935   27.1074    6.1275 N.am      11 UNK        -0.4279 
     65 CA         33.7440   25.7280    5.8384 C.3       11 UNK         0.1003 
     66 C          34.8755   25.2376    6.8028 C.2       11 UNK         0.5709 
     67 N          35.6427   26.1319    7.4170 N.am      11 UNK        -0.7358 
     68 O          35.0847   24.0424    6.9935 O.2       11 UNK        -0.4999 
     69 C69        32.5575   24.7239    5.6830 C.3       12 UNK        -0.0954 
     70 S70        32.9581   23.2343    4.6943 S.3       12 UNK        -0.2268 
     71 C71        31.6928   23.2436    3.3833 C.3       12 UNK         0.0203 
     72 H72        29.4176   27.7175    6.7855 H         1 UNK         0.0888 
     73 H73        27.9360   26.7626    6.8476 H         1 UNK         0.0888 
     74 H74        29.5072   25.9601    6.9416 H         1 UNK         0.0888 
     75 H75        30.2008   28.2421    4.7359 H         1 UNK         0.3017 
     76 H76        30.1114   26.4900    2.4938 H         1 UNK         0.0873 
     77 H77        30.6600   29.4997    2.5046 H         1 UNK         0.0745 
     78 H78        31.8140   28.3246    3.0449 H         1 UNK         0.0745 
     79 H79        33.8407   27.6746    0.1239 H         1 UNK         0.0705 
     80 H80        33.6447   27.7369    1.8554 H         1 UNK         0.0705 
     81 H81        32.4519   25.8377    3.0445 H         1 UNK         0.1334 
     82 H82        31.9407   22.1728    0.8680 H         1 UNK         0.1417 
     83 H83        33.3113   25.7021   -1.1422 H         1 UNK         0.1562 
     84 H84        32.9493   22.0899   -1.4609 H         1 UNK         0.0748 
     85 H85        33.3676   23.5644   -2.2915 H         1 UNK         0.0748 
     86 H86        30.8532   25.0797   -3.8095 H         1 UNK         0.0940 
     87 H87        31.3347   25.5372   -2.2073 H         1 UNK         0.0940 
     88 H88        28.5590   24.7310   -3.1187 H         1 UNK         0.0703 
     89 H89        29.5478   24.6939   -0.4202 H         1 UNK         0.3081 
     90 H90        26.8213   22.9440    0.5225 H         1 UNK         0.0719 
     91 H91        29.2806   24.4195    1.6171 H         1 UNK         0.0809 
     92 H92        28.4893   23.0397    2.3582 H         1 UNK         0.0809 
     93 H93        29.2928   22.8460    0.8128 H         1 UNK         0.0809 
     94 H94        26.9709   25.7187    1.6143 H         1 UNK         0.2990 
     95 H95        23.8006   25.7553    2.6848 H         1 UNK         0.0690 
     96 H96        24.2569   25.8105    5.1441 H         1 UNK         0.0788 
     97 H97        25.7063   24.8341    4.9043 H         1 UNK         0.0788 
     98 H98        24.1192   24.1615    4.5587 H         1 UNK         0.0788 
     99 H99        26.3843   26.8515    3.6438 H         1 UNK         0.2993 
    100 H100       26.4164   29.4562    1.2823 H         1 UNK         0.0949 
    101 H101       24.7859   30.4569    2.8914 H         1 UNK         0.0767 
    102 H102       25.6950   29.7930    4.2431 H         1 UNK         0.0767 
    103 H103       26.4195   31.0201    3.2017 H         1 UNK         0.0767 
    104 H104       28.0133   29.1230    3.5716 H         1 UNK         0.3013 
    105 H105       28.1922   27.0718   -0.8357 H         1 UNK         0.3121 
    106 H106       27.1260   28.9578   -0.9167 H         1 UNK         0.0774 
    107 H107       26.1384   29.8986   -2.9542 H         1 UNK         0.0815 
    108 H108       27.1058   28.8432   -3.9663 H         1 UNK         0.0815 
    109 H109       25.8872   28.1611   -2.8895 H         1 UNK         0.0815 
    110 H110       28.8208   29.9512    0.1531 H         1 UNK         0.2987 
    111 H111       29.4385   32.4341   -1.0249 H         1 UNK         0.0949 
    112 H112       31.9356   30.9453   -0.0396 H         1 UNK         0.0806 
    113 H113       31.5223   31.0278   -1.7487 H         1 UNK         0.0806 
    114 H114       31.8487   32.4948   -0.8507 H         1 UNK         0.0806 
    115 H115       30.9219   33.5949    0.9041 H         1 UNK         0.3010 
    116 H116       29.1202   33.5032    3.1892 H         1 UNK         0.0829 
    117 H117       29.8558   35.6502    2.1645 H         1 UNK         0.0813 
    118 H118       30.3467   35.5642    3.8457 H         1 UNK         0.0813 
    119 H119       31.5336   35.2931    2.5781 H         1 UNK         0.0813 
    120 H120       31.9229   31.7469    2.5659 H         1 UNK         0.3038 
    121 H121       33.3375   32.0054    5.0382 H         1 UNK         0.0769 
    122 H122       34.4994   31.3251    3.0073 H         1 UNK         0.0811 
    123 H123       33.4614   29.9268    2.7907 H         1 UNK         0.0811 
    124 H124       34.5997   29.9846    4.1298 H         1 UNK         0.0811 
    125 H125       33.8272   30.2649    6.5447 H         1 UNK         0.3204 
    126 H126       31.3607   29.1571    7.6460 H         1 UNK         0.0748 
    127 H127       32.9737   30.4220    9.0541 H         1 UNK         0.0771 
    128 H128       32.7869   28.7815    9.6433 H         1 UNK         0.0771 
    129 H129       34.2254   29.2209    8.7342 H         1 UNK         0.0771 
    130 H130       33.6538   27.8259    5.5187 H         1 UNK         0.2980 
    131 H131       34.2289   25.7983    4.8643 H         1 UNK         0.0545 
    132 H132       36.3727   25.8088    8.0322 H         1 UNK         0.3459 
    133 H133       35.5074   27.1184    7.2713 H         1 UNK         0.3459 
    134 H134       31.7109   25.2297    5.2192 H         1 UNK         0.0616 
    135 H135       32.2009   24.3954    6.6604 H         1 UNK         0.0616 
    136 H136       31.4173   22.2085    3.1764 H         1 UNK         0.0634 
    137 H137       30.7827   23.7313    3.7356 H         1 UNK         0.0634 
@<TRIPOS>BOND
     1    1    2 1    
     2    1   72 1    
     3    1   73 1    
     4    1   74 1    
     5    2    3 2    
     6    2    4 am   BACKBONE|DICT|INTERRES
     7    4    5 1    
     8    4   75 1    
     9    5    6 1    
    10    5   35 1    
    11    5   76 1    
    12    6    7 1    
    13    6   77 1    
    14    6   78 1    
    15    7    8 1    
    16    8    9 1    
    17    8   79 1    
    18    8   80 1    
    19    9   10 ar   
    20    9   14 ar   
    21   10   11 ar   
    22   10   81 1    
    23   11   12 ar   
    24   11   71 1    
    25   12   13 ar   
    26   12   82 1    
    27   13   14 ar   
    28   13   15 1    
    29   14   83 1    
    30   15   16 1    
    31   15   84 1    
    32   15   85 1    
    33   16   17 1    
    34   17   18 1    
    35   17   86 1    
    36   17   87 1    
    37   18   19 1    
    38   18   37 1    
    39   18   88 1    
    40   19   20 am   BACKBONE|DICT|INTERRES
    41   19   89 1    
    42   20   21 2    
    43   20   22 1    
    44   22   23 1    
    45   22   24 1    
    46   22   90 1    
    47   23   91 1    
    48   23   92 1    
    49   23   93 1    
    50   24   25 am   BACKBONE|DICT|INTERRES
    51   24   94 1    
    52   25   26 2    
    53   25   27 1    
    54   27   28 1    
    55   27   29 1    
    56   27   95 1    
    57   28   96 1    
    58   28   97 1    
    59   28   98 1    
    60   29   30 am   BACKBONE|DICT|INTERRES
    61   29   99 1    
    62   30   31 2    
    63   30   32 1    
    64   32   33 1    
    65   32   34 1    
    66   32  100 1    
    67   33  101 1    
    68   33  102 1    
    69   33  103 1    
    70   34   35 am   BACKBONE|DICT|INTERRES
    71   34  104 1    
    72   35   36 2    
    73   37   38 2    
    74   37   39 am   BACKBONE|DICT|INTERRES
    75   39   40 1    
    76   39  105 1    
    77   40   41 1    
    78   40   42 1    
    79   40  106 1    
    80   41  107 1    
    81   41  108 1    
    82   41  109 1    
    83   42   43 2    
    84   42   44 am   BACKBONE|DICT|INTERRES
    85   44   45 1    
    86   44  110 1    
    87   45   46 1    
    88   45   47 1    
    89   45  111 1    
    90   46  112 1    
    91   46  113 1    
    92   46  114 1    
    93   47   48 2    
    94   47   49 am   BACKBONE|DICT|INTERRES
    95   49   50 1    
    96   49  115 1    
    97   50   51 1    
    98   50   52 1    
    99   50  116 1    
   100   51  117 1    
   101   51  118 1    
   102   51  119 1    
   103   52   53 2    
   104   52   54 am   BACKBONE|DICT|INTERRES
   105   54   55 1    
   106   54  120 1    
   107   55   56 1    
   108   55   57 1    
   109   55  121 1    
   110   56  122 1    
   111   56  123 1    
   112   56  124 1    
   113   57   58 2    
   114   57   59 am   BACKBONE|DICT|INTERRES
   115   59   60 1    
   116   59  125 1    
   117   60   61 1    
   118   60   62 1    
   119   60  126 1    
   120   61  127 1    
   121   61  128 1    
   122   61  129 1    
   123   62   63 2    
   124   62   64 am   BACKBONE|DICT|INTERRES
   125   64   65 1    
   126   64  130 1    
   127   65   66 1    
   128   65   69 1    
   129   65  131 1    
   130   66   67 am   BACKBONE|DICT|INTERRES
   131   66   68 2    
   132   67  132 1    
   133   67  133 1    
   134   69   70 1    
   135   69  134 1    
   136   69  135 1    
   137   70   71 1    
   138   71  136 1    
   139   71  137 1    
@<TRIPOS>SUBSTRUCTURE
     1 UNK         1 GROUP             0       ****    0 ROOT    
