@<TRIPOS>MOLECULE
3R136
137   139    1
SMALL
USER_CHARGES


@<TRIPOS>ATOM
      1 CA         33.3532   19.3194    2.6792 C.3       0 UNK        -0.1979 
      2 C          32.4517   18.9837    1.4936 C.2       0 UNK         0.4864 
      3 O          32.2650   17.8038    1.1989 O.2       0 UNK        -0.5359 
      4 N          31.8779   19.9614    0.7832 N.am      1 UNK        -0.4318 
      5 CA         31.9777   21.4079    0.9758 C.3       1 UNK         0.0824 
      6 C6         31.2083   21.9230    2.2288 C.3       12 UNK        -0.0944 
      7 S7         29.4320   21.4767    2.2722 S.3       12 UNK        -0.2672 
      8 C8         28.9892   21.8070    4.0085 C.3       12 UNK         0.0333 
      9 C9         28.6605   23.2752    4.2431 C.ar      12 UNK        -0.0807 
     10 C10        29.6919   24.2020    4.4170 C.ar      12 UNK        -0.0894 
     11 C11        29.4020   25.5546    4.6072 C.ar      12 UNK        -0.0804 
     12 C12        28.0740   25.9689    4.6878 C.ar      12 UNK        -0.0824 
     13 C13        27.0307   25.0582    4.5246 C.ar      12 UNK        -0.0762 
     14 C14        27.3290   23.7098    4.2914 C.ar      12 UNK        -0.0782 
     15 C15        25.5910   25.5465    4.5932 C.3       12 UNK         0.0230 
     16 S16        25.1263   26.4241    3.0668 S.3       12 UNK        -0.2608 
     17 C17        24.9513   28.1717    3.5931 C.3       12 UNK        -0.0989 
     18 CA         26.2204   29.0541    3.4090 C.3       5 UNK         0.0716 
     19 N          26.8962   28.8061    2.1347 N.am      5 UNK        -0.4135 
     20 C          28.0488   29.3344    1.6988 C.2       4 UNK         0.5031 
     21 O          28.7094   30.1831    2.3098 O.2       4 UNK        -0.5229 
     22 CA         28.5600   28.7750    0.3582 C.3       4 UNK         0.0329 
     23 CB         29.8982   29.3944   -0.0758 C.3       4 UNK        -0.2001 
     24 N          28.7177   27.3222    0.4403 N.am      4 UNK        -0.4303 
     25 C          27.7420   26.4260    0.2448 C.2       3 UNK         0.5044 
     26 O          26.5982   26.7390   -0.0909 O.2       3 UNK        -0.5152 
     27 CA         28.1080   24.9510    0.4990 C.3       3 UNK         0.0319 
     28 CB         27.0350   23.9648   -0.0053 C.3       3 UNK        -0.2001 
     29 N          29.4328   24.5873   -0.0175 N.am      3 UNK        -0.4354 
     30 C          29.8737   24.6712   -1.2845 C.2       2 UNK         0.4964 
     31 O          29.1974   25.0831   -2.2271 O.2       2 UNK        -0.5047 
     32 CA         31.3288   24.2331   -1.5494 C.3       2 UNK         0.0288 
     33 CB         32.2346   25.4674   -1.6937 C.3       2 UNK        -0.2113 
     34 N          31.8708   23.3561   -0.5050 N.am      2 UNK        -0.4145 
     35 C          31.4804   22.0887   -0.3112 C.2       1 UNK         0.5006 
     36 O          30.7282   21.4785   -1.0778 O.2       1 UNK        -0.5103 
     37 C          25.8924   30.5505    3.5581 C.2       5 UNK         0.5055 
     38 O          25.0281   31.0510    2.8367 O.2       5 UNK        -0.5220 
     39 N          26.6490   31.2476    4.4190 N.am      6 UNK        -0.4450 
     40 CA         26.6722   32.7020    4.6539 C.3       6 UNK         0.0367 
     41 CB         25.3029   33.2181    5.1392 C.3       6 UNK        -0.1929 
     42 C          27.1965   33.5470    3.4721 C.2       6 UNK         0.5070 
     43 O          27.6711   34.6593    3.7025 O.2       6 UNK        -0.5237 
     44 N          27.1257   33.0181    2.2436 N.am      7 UNK        -0.4739 
     45 CA         27.6119   33.6320    1.0070 C.3       7 UNK         0.0276 
     46 CB         27.1259   32.8044   -0.1938 C.3       7 UNK        -0.1927 
     47 C          29.1399   33.7965    0.9650 C.2       7 UNK         0.5013 
     48 O          29.6161   34.7760    0.3891 O.2       7 UNK        -0.5193 
     49 N          29.8740   32.8588    1.5797 N.am      8 UNK        -0.4253 
     50 CA         31.3274   32.9436    1.7441 C.3       8 UNK         0.0242 
     51 CB         32.0594   32.3185    0.5432 C.3       8 UNK        -0.2000 
     52 C          31.8127   32.3250    3.0590 C.2       8 UNK         0.4948 
     53 O          32.8247   32.7933    3.5806 O.2       8 UNK        -0.5275 
     54 N          31.1317   31.2836    3.5669 N.am      9 UNK        -0.4246 
     55 CA         31.4004   30.5481    4.8173 C.3       9 UNK         0.0261 
     56 CB         31.2556   31.4647    6.0473 C.3       9 UNK        -0.1959 
     57 C          32.7274   29.7571    4.8681 C.2       9 UNK         0.5033 
     58 O          32.7774   28.7166    5.5253 O.2       9 UNK        -0.5390 
     59 N          33.7663   30.2106    4.1580 N.am      10 UNK        -0.4215 
     60 CA         35.0230   29.4981    3.9166 C.3       10 UNK         0.0240 
     61 CB         36.1264   30.5273    3.6083 C.3       10 UNK        -0.1982 
     62 C          34.8369   28.4682    2.7853 C.2       10 UNK         0.4970 
     63 O          35.3931   28.6309    1.6981 O.2       10 UNK        -0.4916 
     64 N          34.0067   27.4549    3.0516 N.am      11 UNK        -0.4279 
     65 CA         33.5035   26.4794    2.0698 C.3       11 UNK         0.1003 
     66 C          34.4874   25.3347    1.6891 C.2       11 UNK         0.5709 
     67 N          35.7234   25.3238    2.1702 N.am      11 UNK        -0.7358 
     68 O          34.1080   24.4267    0.9510 O.2       11 UNK        -0.4999 
     69 C69        32.1293   25.8979    2.4926 C.3       12 UNK        -0.0954 
     70 S70        30.9277   27.1675    3.0074 S.3       12 UNK        -0.2268 
     71 C71        30.5091   26.5881    4.6807 C.3       12 UNK         0.0203 
     72 H72        32.7555   19.4605    3.5790 H         1 UNK         0.0888 
     73 H73        34.0462   18.4995    2.8670 H         1 UNK         0.0888 
     74 H74        33.9515   20.2129    2.5109 H         1 UNK         0.0888 
     75 H75        31.2919   19.7234   -0.0085 H         1 UNK         0.3017 
     76 H76        33.0327   21.6708    1.0715 H         1 UNK         0.0873 
     77 H77        31.6807   21.5425    3.1339 H         1 UNK         0.0745 
     78 H78        31.2926   23.0069    2.2979 H         1 UNK         0.0745 
     79 H79        29.7979   21.4900    4.6686 H         1 UNK         0.0705 
     80 H80        28.1294   21.1878    4.2685 H         1 UNK         0.0705 
     81 H81        30.7197   23.8724    4.3832 H         1 UNK         0.1334 
     82 H82        27.8555   27.0094    4.8601 H         1 UNK         0.1417 
     83 H83        26.5263   22.9983    4.1520 H         1 UNK         0.1562 
     84 H84        25.4592   26.1889    5.4647 H         1 UNK         0.0748 
     85 H85        24.9116   24.7042    4.7317 H         1 UNK         0.0748 
     86 H86        24.6109   28.2099    4.6292 H         1 UNK         0.0940 
     87 H87        24.1251   28.5749    3.0036 H         1 UNK         0.0940 
     88 H88        26.9266   28.7961    4.1956 H         1 UNK         0.0703 
     89 H89        26.4530   28.1122    1.5429 H         1 UNK         0.3081 
     90 H90        27.8177   29.0191   -0.4047 H         1 UNK         0.0719 
     91 H91        30.6817   29.2193    0.6624 H         1 UNK         0.0809 
     92 H92        30.2362   28.9824   -1.0267 H         1 UNK         0.0809 
     93 H93        29.7983   30.4717   -0.2096 H         1 UNK         0.0809 
     94 H94        29.6098   26.9903    0.7787 H         1 UNK         0.2990 
     95 H95        28.1653   24.8419    1.5832 H         1 UNK         0.0690 
     96 H96        27.3085   22.9343    0.2221 H         1 UNK         0.0788 
     97 H97        26.8859   24.0447   -1.0824 H         1 UNK         0.0788 
     98 H98        26.0741   24.1571    0.4741 H         1 UNK         0.0788 
     99 H99        30.0709   24.2164    0.6696 H         1 UNK         0.2993 
    100 H100       31.3395   23.6859   -2.4948 H         1 UNK         0.0949 
    101 H101       32.2268   26.0818   -0.7936 H         1 UNK         0.0767 
    102 H102       33.2670   25.1826   -1.8983 H         1 UNK         0.0767 
    103 H103       31.9033   26.0988   -2.5194 H         1 UNK         0.0767 
    104 H104       32.5822   23.7562    0.1035 H         1 UNK         0.3013 
    105 H105       27.3714   30.7380    4.9090 H         1 UNK         0.3121 
    106 H106       27.3835   32.8529    5.4676 H         1 UNK         0.0774 
    107 H107       25.3660   34.2670    5.4319 H         1 UNK         0.0815 
    108 H108       24.5400   33.1474    4.3636 H         1 UNK         0.0815 
    109 H109       24.9529   32.6604    6.0077 H         1 UNK         0.0815 
    110 H110       26.6544   32.1258    2.1580 H         1 UNK         0.2987 
    111 H111       27.1731   34.6298    0.9380 H         1 UNK         0.0949 
    112 H112       27.4439   33.2578   -1.1337 H         1 UNK         0.0806 
    113 H113       27.5212   31.7887   -0.1724 H         1 UNK         0.0806 
    114 H114       26.0378   32.7407   -0.2179 H         1 UNK         0.0806 
    115 H115       29.3910   32.0789    2.0129 H         1 UNK         0.3010 
    116 H116       31.6056   33.9991    1.7924 H         1 UNK         0.0829 
    117 H117       31.7030   32.7268   -0.4025 H         1 UNK         0.0813 
    118 H118       33.1300   32.5203    0.5988 H         1 UNK         0.0813 
    119 H119       31.9420   31.2368    0.5124 H         1 UNK         0.0813 
    120 H120       30.3501   30.9095    3.0350 H         1 UNK         0.3038 
    121 H121       30.6063   29.8028    4.8768 H         1 UNK         0.0769 
    122 H122       31.3397   30.8904    6.9710 H         1 UNK         0.0811 
    123 H123       30.2847   31.9599    6.0608 H         1 UNK         0.0811 
    124 H124       32.0263   32.2354    6.0756 H         1 UNK         0.0811 
    125 H125       33.6473   31.1130    3.7048 H         1 UNK         0.3204 
    126 H126       35.3110   28.9555    4.8196 H         1 UNK         0.0748 
    127 H127       37.0821   30.0337    3.4267 H         1 UNK         0.0771 
    128 H128       35.8909   31.1217    2.7243 H         1 UNK         0.0771 
    129 H129       36.2704   31.2138    4.4429 H         1 UNK         0.0771 
    130 H130       33.5653   27.4347    3.9633 H         1 UNK         0.2980 
    131 H131       33.3383   27.0303    1.1425 H         1 UNK         0.0545 
    132 H132       36.0451   26.0666    2.7690 H         1 UNK         0.3459 
    133 H133       36.3441   24.5721    1.9156 H         1 UNK         0.3459 
    134 H134       32.2710   25.1776    3.2985 H         1 UNK         0.0616 
    135 H135       31.6797   25.3472    1.6673 H         1 UNK         0.0616 
    136 H136       31.3892   26.1862    5.1844 H         1 UNK         0.0634 
    137 H137       30.1837   27.4408    5.2776 H         1 UNK         0.0634 
@<TRIPOS>BOND
     1    1    2 1    
     2    1   72 1    
     3    1   73 1    
     4    1   74 1    
     5    2    3 2    
     6    2    4 am   BACKBONE|DICT|INTERRES
     7    4    5 1    
     8    4   75 1    
     9    5    6 1    
    10    5   35 1    
    11    5   76 1    
    12    6    7 1    
    13    6   77 1    
    14    6   78 1    
    15    7    8 1    
    16    8    9 1    
    17    8   79 1    
    18    8   80 1    
    19    9   10 ar   
    20    9   14 ar   
    21   10   11 ar   
    22   10   81 1    
    23   11   12 ar   
    24   11   71 1    
    25   12   13 ar   
    26   12   82 1    
    27   13   14 ar   
    28   13   15 1    
    29   14   83 1    
    30   15   16 1    
    31   15   84 1    
    32   15   85 1    
    33   16   17 1    
    34   17   18 1    
    35   17   86 1    
    36   17   87 1    
    37   18   19 1    
    38   18   37 1    
    39   18   88 1    
    40   19   20 am   BACKBONE|DICT|INTERRES
    41   19   89 1    
    42   20   21 2    
    43   20   22 1    
    44   22   23 1    
    45   22   24 1    
    46   22   90 1    
    47   23   91 1    
    48   23   92 1    
    49   23   93 1    
    50   24   25 am   BACKBONE|DICT|INTERRES
    51   24   94 1    
    52   25   26 2    
    53   25   27 1    
    54   27   28 1    
    55   27   29 1    
    56   27   95 1    
    57   28   96 1    
    58   28   97 1    
    59   28   98 1    
    60   29   30 am   BACKBONE|DICT|INTERRES
    61   29   99 1    
    62   30   31 2    
    63   30   32 1    
    64   32   33 1    
    65   32   34 1    
    66   32  100 1    
    67   33  101 1    
    68   33  102 1    
    69   33  103 1    
    70   34   35 am   BACKBONE|DICT|INTERRES
    71   34  104 1    
    72   35   36 2    
    73   37   38 2    
    74   37   39 am   BACKBONE|DICT|INTERRES
    75   39   40 1    
    76   39  105 1    
    77   40   41 1    
    78   40   42 1    
    79   40  106 1    
    80   41  107 1    
    81   41  108 1    
    82   41  109 1    
    83   42   43 2    
    84   42   44 am   BACKBONE|DICT|INTERRES
    85   44   45 1    
    86   44  110 1    
    87   45   46 1    
    88   45   47 1    
    89   45  111 1    
    90   46  112 1    
    91   46  113 1    
    92   46  114 1    
    93   47   48 2    
    94   47   49 am   BACKBONE|DICT|INTERRES
    95   49   50 1    
    96   49  115 1    
    97   50   51 1    
    98   50   52 1    
    99   50  116 1    
   100   51  117 1    
   101   51  118 1    
   102   51  119 1    
   103   52   53 2    
   104   52   54 am   BACKBONE|DICT|INTERRES
   105   54   55 1    
   106   54  120 1    
   107   55   56 1    
   108   55   57 1    
   109   55  121 1    
   110   56  122 1    
   111   56  123 1    
   112   56  124 1    
   113   57   58 2    
   114   57   59 am   BACKBONE|DICT|INTERRES
   115   59   60 1    
   116   59  125 1    
   117   60   61 1    
   118   60   62 1    
   119   60  126 1    
   120   61  127 1    
   121   61  128 1    
   122   61  129 1    
   123   62   63 2    
   124   62   64 am   BACKBONE|DICT|INTERRES
   125   64   65 1    
   126   64  130 1    
   127   65   66 1    
   128   65   69 1    
   129   65  131 1    
   130   66   67 am   BACKBONE|DICT|INTERRES
   131   66   68 2    
   132   67  132 1    
   133   67  133 1    
   134   69   70 1    
   135   69  134 1    
   136   69  135 1    
   137   70   71 1    
   138   71  136 1    
   139   71  137 1    
@<TRIPOS>SUBSTRUCTURE
     1 UNK         1 GROUP             0       ****    0 ROOT    
