@<TRIPOS>MOLECULE
3R136
137   139    1
SMALL
USER_CHARGES


@<TRIPOS>ATOM
      1 CA         27.6058   21.6203    1.1411 C.3       0 UNK        -0.1979 
      2 C          27.8780   22.4279   -0.1187 C.2       0 UNK         0.4864 
      3 O          26.9757   22.6054   -0.9393 O.2       0 UNK        -0.5359 
      4 N          29.1138   22.9203   -0.2850 N.am      1 UNK        -0.4318 
      5 CA         29.4944   23.8304   -1.3688 C.3       1 UNK         0.0824 
      6 C6         31.0319   23.9181   -1.5556 C.3       12 UNK        -0.0944 
      7 S7         31.9341   24.6234   -0.1348 S.3       12 UNK        -0.2672 
      8 C8         32.5649   23.1480    0.7217 C.3       12 UNK         0.0333 
      9 C9         32.4714   23.3397    2.2271 C.ar      12 UNK        -0.0807 
     10 C10        33.3813   24.1702    2.8872 C.ar      12 UNK        -0.0894 
     11 C11        33.2836   24.3977    4.2636 C.ar      12 UNK        -0.0804 
     12 C12        32.2640   23.7569    4.9826 C.ar      12 UNK        -0.0824 
     13 C13        31.3460   22.9219    4.3336 C.ar      12 UNK        -0.0762 
     14 C14        31.4618   22.7102    2.9581 C.ar      12 UNK        -0.0782 
     15 C15        30.2191   22.2552    5.1154 C.3       12 UNK         0.0230 
     16 S16        28.5644   22.8410    4.6066 S.3       12 UNK        -0.2608 
     17 C17        28.7196   24.6415    4.8439 C.3       12 UNK        -0.0989 
     18 CA         28.5331   25.4185    3.5076 C.3       5 UNK         0.0716 
     19 N          27.1080   25.7284    3.2977 N.am      5 UNK        -0.4135 
     20 C          26.5247   26.7065    2.5857 C.2       4 UNK         0.5031 
     21 O          27.1060   27.6109    1.9835 O.2       4 UNK        -0.5229 
     22 CA         24.9947   26.6516    2.5050 C.3       4 UNK         0.0329 
     23 CB         24.3578   27.9852    2.9314 C.3       4 UNK        -0.2001 
     24 N          24.6492   26.3767    1.1168 N.am      4 UNK        -0.4303 
     25 C          24.4892   25.1560    0.5977 C.2       3 UNK         0.5044 
     26 O          24.4201   24.1278    1.2721 O.2       3 UNK        -0.5152 
     27 CA         24.4333   25.0622   -0.9363 C.3       3 UNK         0.0319 
     28 CB         23.1545   25.7034   -1.5125 C.3       3 UNK        -0.2001 
     29 N          25.6535   25.5705   -1.5793 N.am      3 UNK        -0.4354 
     30 C          26.1225   26.8293   -1.6352 C.2       2 UNK         0.4964 
     31 O          25.5028   27.8059   -1.2097 O.2       2 UNK        -0.5047 
     32 CA         27.5149   27.0315   -2.2766 C.3       2 UNK         0.0288 
     33 CB         28.2653   28.2494   -1.6900 C.3       2 UNK        -0.2113 
     34 N          28.3525   25.8209   -2.2454 N.am      2 UNK        -0.4145 
     35 C          28.8267   25.2057   -1.1508 C.2       1 UNK         0.5006 
     36 O          28.7255   25.6521   -0.0051 O.2       1 UNK        -0.5103 
     37 C          29.4781   26.6359    3.4392 C.2       5 UNK         0.5055 
     38 O          29.7357   27.2582    4.4701 O.2       5 UNK        -0.5220 
     39 N          29.9525   26.9450    2.2221 N.am      6 UNK        -0.4450 
     40 CA         30.8848   28.0191    1.8665 C.3       6 UNK         0.0367 
     41 CB         32.3200   27.6142    2.2477 C.3       6 UNK        -0.1929 
     42 C          30.4901   29.4008    2.4250 C.2       6 UNK         0.5070 
     43 O          31.3572   30.1339    2.9173 O.2       6 UNK        -0.5237 
     44 N          29.1886   29.7197    2.3631 N.am      7 UNK        -0.4739 
     45 CA         28.5850   30.9643    2.8460 C.3       7 UNK         0.0276 
     46 CB         27.0728   30.9374    2.5727 C.3       7 UNK        -0.1927 
     47 C          29.2396   32.2080    2.2221 C.2       7 UNK         0.5013 
     48 O          29.1448   32.4008    1.0086 O.2       7 UNK        -0.5193 
     49 N          29.9310   32.9866    3.0676 N.am      8 UNK        -0.4253 
     50 CA         30.7528   34.1633    2.7480 C.3       8 UNK         0.0242 
     51 CB         29.9006   35.2845    2.1150 C.3       8 UNK        -0.2000 
     52 C          32.0230   33.8641    1.9207 C.2       8 UNK         0.4948 
     53 O          32.7188   34.8092    1.5448 O.2       8 UNK        -0.5275 
     54 N          32.3260   32.5829    1.6701 N.am      9 UNK        -0.4246 
     55 CA         33.5185   32.1257    0.9558 C.3       9 UNK         0.0261 
     56 CB         33.1255   31.0466   -0.0671 C.3       9 UNK        -0.1959 
     57 C          34.5807   31.5956    1.9297 C.2       9 UNK         0.5033 
     58 O          35.7639   31.8750    1.7297 O.2       9 UNK        -0.5390 
     59 N          34.1534   30.8610    2.9658 N.am      10 UNK        -0.4215 
     60 CA         35.0185   30.3164    4.0107 C.3       10 UNK         0.0240 
     61 CB         35.7726   29.0622    3.5143 C.3       10 UNK        -0.1982 
     62 C          34.1950   30.0708    5.2797 C.2       10 UNK         0.4970 
     63 O          34.1533   30.9434    6.1470 O.2       10 UNK        -0.4916 
     64 N          33.5678   28.8915    5.3664 N.am      11 UNK        -0.4279 
     65 CA         32.7672   28.4336    6.5135 C.3       11 UNK         0.1003 
     66 C          31.4614   29.2397    6.7824 C.2       11 UNK         0.5709 
     67 N          30.9439   30.0252    5.8460 N.am      11 UNK        -0.7358 
     68 O          30.9209   29.1697    7.8840 O.2       11 UNK        -0.4999 
     69 C69        32.4803   26.9091    6.4354 C.3       12 UNK        -0.0954 
     70 S70        33.9758   25.8809    6.6202 S.3       12 UNK        -0.2268 
     71 C71        34.3116   25.3340    4.9080 C.3       12 UNK         0.0203 
     72 H72        26.8972   22.1516    1.7765 H         1 UNK         0.0888 
     73 H73        27.1743   20.6538    0.8826 H         1 UNK         0.0888 
     74 H74        28.5124   21.4422    1.7178 H         1 UNK         0.0888 
     75 H75        29.8074   22.7968    0.4354 H         1 UNK         0.3017 
     76 H76        29.0884   23.4097   -2.2916 H         1 UNK         0.0873 
     77 H77        31.4352   22.9314   -1.7883 H         1 UNK         0.0745 
     78 H78        31.2609   24.5330   -2.4278 H         1 UNK         0.0745 
     79 H79        33.6019   22.9769    0.4291 H         1 UNK         0.0705 
     80 H80        32.0087   22.2606    0.4172 H         1 UNK         0.0705 
     81 H81        34.1601   24.6586    2.3171 H         1 UNK         0.1334 
     82 H82        32.1706   23.9099    6.0481 H         1 UNK         0.1417 
     83 H83        30.7533   22.0638    2.4607 H         1 UNK         0.1562 
     84 H84        30.3378   22.4242    6.1869 H         1 UNK         0.0748 
     85 H85        30.2720   21.1754    4.9696 H         1 UNK         0.0748 
     86 H86        29.6880   24.8404    5.3057 H         1 UNK         0.0940 
     87 H87        27.9929   24.9669    5.5904 H         1 UNK         0.0940 
     88 H88        28.8278   24.7659    2.6829 H         1 UNK         0.0703 
     89 H89        26.4861   25.0529    3.7167 H         1 UNK         0.3081 
     90 H90        24.6127   25.8642    3.1585 H         1 UNK         0.0719 
     91 H91        24.6455   28.2471    3.9503 H         1 UNK         0.0809 
     92 H92        24.6637   28.8066    2.2822 H         1 UNK         0.0809 
     93 H93        23.2696   27.9283    2.9042 H         1 UNK         0.0809 
     94 H94        24.8067   27.1353    0.4579 H         1 UNK         0.2990 
     95 H95        24.3984   23.9993   -1.1817 H         1 UNK         0.0690 
     96 H96        23.0903   26.7702   -1.2978 H         1 UNK         0.0788 
     97 H97        22.2647   25.2366   -1.0883 H         1 UNK         0.0788 
     98 H98        23.1024   25.5767   -2.5938 H         1 UNK         0.0788 
     99 H99        26.2653   24.8410   -1.9202 H         1 UNK         0.2993 
    100 H100       27.3268   27.2414   -3.3306 H         1 UNK         0.0949 
    101 H101       28.3780   28.1751   -0.6076 H         1 UNK         0.0767 
    102 H102       29.2587   28.3547   -2.1258 H         1 UNK         0.0767 
    103 H103       27.7238   29.1746   -1.8908 H         1 UNK         0.0767 
    104 H104       28.5006   25.3791   -3.1429 H         1 UNK         0.3013 
    105 H105       29.5713   26.4252    1.4306 H         1 UNK         0.3121 
    106 H106       30.8432   28.1101    0.7802 H         1 UNK         0.0774 
    107 H107       33.0411   28.3710    1.9425 H         1 UNK         0.0815 
    108 H108       32.4147   27.4644    3.3203 H         1 UNK         0.0815 
    109 H109       32.6105   26.6874    1.7584 H         1 UNK         0.0815 
    110 H110       28.5434   29.0162    2.0119 H         1 UNK         0.2987 
    111 H111       28.7274   30.9935    3.9278 H         1 UNK         0.0949 
    112 H112       26.5901   30.1305    3.1235 H         1 UNK         0.0806 
    113 H113       26.5994   31.8698    2.8832 H         1 UNK         0.0806 
    114 H114       26.8570   30.7953    1.5128 H         1 UNK         0.0806 
    115 H115       29.9585   32.7085    4.0391 H         1 UNK         0.3010 
    116 H116       31.1143   34.5355    3.7078 H         1 UNK         0.0829 
    117 H117       29.0205   35.5044    2.7191 H         1 UNK         0.0813 
    118 H118       30.4718   36.2099    2.0302 H         1 UNK         0.0813 
    119 H119       29.5634   35.0223    1.1119 H         1 UNK         0.0813 
    120 H120       31.7175   31.8612    2.0424 H         1 UNK         0.3038 
    121 H121       33.9646   32.9550    0.4026 H         1 UNK         0.0769 
    122 H122       32.4194   31.4382   -0.7995 H         1 UNK         0.0811 
    123 H123       33.9996   30.6932   -0.6159 H         1 UNK         0.0811 
    124 H124       32.6659   30.1802    0.4060 H         1 UNK         0.0811 
    125 H125       33.1570   30.6752    3.0616 H         1 UNK         0.3204 
    126 H126       35.7638   31.0713    4.2716 H         1 UNK         0.0748 
    127 H127       36.4987   29.3230    2.7442 H         1 UNK         0.0771 
    128 H128       36.3275   28.5900    4.3265 H         1 UNK         0.0771 
    129 H129       35.1056   28.3135    3.0899 H         1 UNK         0.0771 
    130 H130       33.6539   28.2408    4.6037 H         1 UNK         0.2980 
    131 H131       33.3835   28.5985    7.3995 H         1 UNK         0.0545 
    132 H132       31.3196   30.0353    4.9065 H         1 UNK         0.3459 
    133 H133       30.1009   30.5290    6.0614 H         1 UNK         0.3459 
    134 H134       31.7958   26.6051    7.2295 H         1 UNK         0.0616 
    135 H135       31.9810   26.6578    5.5013 H         1 UNK         0.0616 
    136 H136       35.2766   24.8257    4.9066 H         1 UNK         0.0634 
    137 H137       34.4346   26.2192    4.2843 H         1 UNK         0.0634 
@<TRIPOS>BOND
     1    1    2 1    
     2    1   72 1    
     3    1   73 1    
     4    1   74 1    
     5    2    3 2    
     6    2    4 am   BACKBONE|DICT|INTERRES
     7    4    5 1    
     8    4   75 1    
     9    5    6 1    
    10    5   35 1    
    11    5   76 1    
    12    6    7 1    
    13    6   77 1    
    14    6   78 1    
    15    7    8 1    
    16    8    9 1    
    17    8   79 1    
    18    8   80 1    
    19    9   10 ar   
    20    9   14 ar   
    21   10   11 ar   
    22   10   81 1    
    23   11   12 ar   
    24   11   71 1    
    25   12   13 ar   
    26   12   82 1    
    27   13   14 ar   
    28   13   15 1    
    29   14   83 1    
    30   15   16 1    
    31   15   84 1    
    32   15   85 1    
    33   16   17 1    
    34   17   18 1    
    35   17   86 1    
    36   17   87 1    
    37   18   19 1    
    38   18   37 1    
    39   18   88 1    
    40   19   20 am   BACKBONE|DICT|INTERRES
    41   19   89 1    
    42   20   21 2    
    43   20   22 1    
    44   22   23 1    
    45   22   24 1    
    46   22   90 1    
    47   23   91 1    
    48   23   92 1    
    49   23   93 1    
    50   24   25 am   BACKBONE|DICT|INTERRES
    51   24   94 1    
    52   25   26 2    
    53   25   27 1    
    54   27   28 1    
    55   27   29 1    
    56   27   95 1    
    57   28   96 1    
    58   28   97 1    
    59   28   98 1    
    60   29   30 am   BACKBONE|DICT|INTERRES
    61   29   99 1    
    62   30   31 2    
    63   30   32 1    
    64   32   33 1    
    65   32   34 1    
    66   32  100 1    
    67   33  101 1    
    68   33  102 1    
    69   33  103 1    
    70   34   35 am   BACKBONE|DICT|INTERRES
    71   34  104 1    
    72   35   36 2    
    73   37   38 2    
    74   37   39 am   BACKBONE|DICT|INTERRES
    75   39   40 1    
    76   39  105 1    
    77   40   41 1    
    78   40   42 1    
    79   40  106 1    
    80   41  107 1    
    81   41  108 1    
    82   41  109 1    
    83   42   43 2    
    84   42   44 am   BACKBONE|DICT|INTERRES
    85   44   45 1    
    86   44  110 1    
    87   45   46 1    
    88   45   47 1    
    89   45  111 1    
    90   46  112 1    
    91   46  113 1    
    92   46  114 1    
    93   47   48 2    
    94   47   49 am   BACKBONE|DICT|INTERRES
    95   49   50 1    
    96   49  115 1    
    97   50   51 1    
    98   50   52 1    
    99   50  116 1    
   100   51  117 1    
   101   51  118 1    
   102   51  119 1    
   103   52   53 2    
   104   52   54 am   BACKBONE|DICT|INTERRES
   105   54   55 1    
   106   54  120 1    
   107   55   56 1    
   108   55   57 1    
   109   55  121 1    
   110   56  122 1    
   111   56  123 1    
   112   56  124 1    
   113   57   58 2    
   114   57   59 am   BACKBONE|DICT|INTERRES
   115   59   60 1    
   116   59  125 1    
   117   60   61 1    
   118   60   62 1    
   119   60  126 1    
   120   61  127 1    
   121   61  128 1    
   122   61  129 1    
   123   62   63 2    
   124   62   64 am   BACKBONE|DICT|INTERRES
   125   64   65 1    
   126   64  130 1    
   127   65   66 1    
   128   65   69 1    
   129   65  131 1    
   130   66   67 am   BACKBONE|DICT|INTERRES
   131   66   68 2    
   132   67  132 1    
   133   67  133 1    
   134   69   70 1    
   135   69  134 1    
   136   69  135 1    
   137   70   71 1    
   138   71  136 1    
   139   71  137 1    
@<TRIPOS>SUBSTRUCTURE
     1 UNK         1 GROUP             0       ****    0 ROOT    
