@<TRIPOS>MOLECULE
3R136
137   139    1
SMALL
USER_CHARGES


@<TRIPOS>ATOM
      1 CA         32.5908   20.9246   -1.9670 C.3       0 UNK        -0.1979 
      2 C          32.0338   22.2503   -2.4643 C.2       0 UNK         0.4864 
      3 O          32.7573   23.0190   -3.0991 O.2       0 UNK        -0.5359 
      4 N          30.7565   22.5214   -2.1809 N.am      1 UNK        -0.4318 
      5 CA         30.0314   23.7273   -2.5724 C.3       1 UNK         0.0824 
      6 C6         30.4154   24.9691   -1.7156 C.3       12 UNK        -0.0944 
      7 S7         29.8792   24.9271    0.0327 S.3       12 UNK        -0.2672 
      8 C8         31.2614   24.0330    0.8210 C.3       12 UNK         0.0333 
      9 C9         31.2397   24.1124    2.3449 C.ar      12 UNK        -0.0807 
     10 C10        32.4321   24.3151    3.0462 C.ar      12 UNK        -0.0894 
     11 C11        32.4386   24.3846    4.4425 C.ar      12 UNK        -0.0804 
     12 C12        31.2362   24.2547    5.1443 C.ar      12 UNK        -0.0824 
     13 C13        30.0378   24.0291    4.4592 C.ar      12 UNK        -0.0762 
     14 C14        30.0506   23.9482    3.0623 C.ar      12 UNK        -0.0782 
     15 C15        28.7419   23.8082    5.2293 C.3       12 UNK         0.0230 
     16 S16        27.3624   24.8189    4.6012 S.3       12 UNK        -0.2608 
     17 C17        27.6856   26.4480    5.3611 C.3       12 UNK        -0.0989 
     18 CA         28.3207   27.4960    4.4056 C.3       5 UNK         0.0716 
     19 N          27.6717   27.5187    3.0963 N.am      5 UNK        -0.4135 
     20 C          28.0337   28.2325    2.0236 C.2       4 UNK         0.5031 
     21 O          28.9588   29.0504    2.0144 O.2       4 UNK        -0.5229 
     22 CA         27.2293   27.9735    0.7332 C.3       4 UNK         0.0329 
     23 CB         27.9530   28.4943   -0.5204 C.3       4 UNK        -0.2001 
     24 N          26.9226   26.5532    0.5358 N.am      4 UNK        -0.4303 
     25 C          25.9015   25.8877    1.0918 C.2       3 UNK         0.5044 
     26 O          25.1212   26.4040    1.8934 O.2       3 UNK        -0.5152 
     27 CA         25.7512   24.3999    0.7105 C.3       3 UNK         0.0319 
     28 CB         24.3473   23.8426    1.0257 C.3       3 UNK        -0.2001 
     29 N          26.1208   24.1093   -0.6819 N.am      3 UNK        -0.4354 
     30 C          25.6071   24.6455   -1.8002 C.2       2 UNK         0.4964 
     31 O          24.6975   25.4766   -1.8060 O.2       2 UNK        -0.5047 
     32 CA         26.2393   24.1893   -3.1341 C.3       2 UNK         0.0288 
     33 CB         25.7028   24.9763   -4.3456 C.3       2 UNK        -0.2113 
     34 N          27.7041   24.2864   -3.1211 N.am      2 UNK        -0.4145 
     35 C          28.5274   23.4052   -2.5383 C.2       1 UNK         0.5006 
     36 O          28.1295   22.3926   -1.9516 O.2       1 UNK        -0.5103 
     37 C          28.2723   28.8925    5.0521 C.2       5 UNK         0.5055 
     38 O          27.1768   29.3934    5.3169 O.2       5 UNK        -0.5220 
     39 N          29.4486   29.4894    5.2773 N.am      6 UNK        -0.4450 
     40 CA         29.6768   30.8329    5.8230 C.3       6 UNK         0.0367 
     41 CB         29.0603   30.9946    7.2292 C.3       6 UNK        -0.1929 
     42 C          29.2709   31.9703    4.8619 C.2       6 UNK         0.5070 
     43 O          29.2173   33.1245    5.2894 O.2       6 UNK        -0.5237 
     44 N          29.0158   31.6422    3.5885 N.am      7 UNK        -0.4739 
     45 CA         28.7282   32.5823    2.5100 C.3       7 UNK         0.0276 
     46 CB         27.3833   32.2097    1.8520 C.3       7 UNK        -0.1927 
     47 C          29.9298   32.5594    1.5564 C.2       7 UNK         0.5013 
     48 O          30.9753   33.1086    1.9070 O.2       7 UNK        -0.5193 
     49 N          29.7846   31.9158    0.3885 N.am      8 UNK        -0.4253 
     50 CA         30.8645   31.7206   -0.5847 C.3       8 UNK         0.0242 
     51 CB         30.2931   31.2048   -1.9153 C.3       8 UNK        -0.2000 
     52 C          31.9707   30.7849   -0.0664 C.2       8 UNK         0.4948 
     53 O          33.1393   31.0065   -0.3867 O.2       8 UNK        -0.5275 
     54 N          31.5969   29.7886    0.7483 N.am      9 UNK        -0.4246 
     55 CA         32.5236   28.9600    1.5093 C.3       9 UNK         0.0261 
     56 CB         32.0632   27.4959    1.4571 C.3       9 UNK        -0.1959 
     57 C          32.5398   29.5129    2.9365 C.2       9 UNK         0.5033 
     58 O          31.7508   29.0723    3.7755 O.2       9 UNK        -0.5390 
     59 N          33.4044   30.5081    3.1751 N.am      10 UNK        -0.4215 
     60 CA         33.5204   31.3016    4.4075 C.3       10 UNK         0.0240 
     61 CB         34.3467   32.5648    4.1011 C.3       10 UNK        -0.1982 
     62 C          34.0537   30.5284    5.6381 C.2       10 UNK         0.4970 
     63 O          34.8873   31.0484    6.3821 O.2       10 UNK        -0.4916 
     64 N          33.5687   29.3002    5.8255 N.am      11 UNK        -0.4279 
     65 CA         33.8510   28.4022    6.9476 C.3       11 UNK         0.1003 
     66 C          33.2075   28.8940    8.2718 C.2       11 UNK         0.5709 
     67 N          33.8099   28.5713    9.4083 N.am      11 UNK        -0.7358 
     68 O          32.1552   29.5300    8.2833 O.2       11 UNK        -0.4999 
     69 C69        33.4018   26.9571    6.6102 C.3       12 UNK        -0.0954 
     70 S70        34.3202   26.2817    5.1870 S.3       12 UNK        -0.2268 
     71 C71        33.7566   24.5540    5.1840 C.3       12 UNK         0.0203 
     72 H72        31.8442   20.3487   -1.4203 H         1 UNK         0.0888 
     73 H73        32.9350   20.3227   -2.8076 H         1 UNK         0.0888 
     74 H74        33.4368   21.0992   -1.3027 H         1 UNK         0.0888 
     75 H75        30.1718   21.8457   -1.7028 H         1 UNK         0.3017 
     76 H76        30.2815   23.9368   -3.6148 H         1 UNK         0.0873 
     77 H77        31.4932   25.1330   -1.7530 H         1 UNK         0.0745 
     78 H78        29.9824   25.8659   -2.1612 H         1 UNK         0.0745 
     79 H79        32.2012   24.4333    0.4378 H         1 UNK         0.0705 
     80 H80        31.2242   22.9836    0.5291 H         1 UNK         0.0705 
     81 H81        33.3637   24.4166    2.5062 H         1 UNK         0.1334 
     82 H82        31.2402   24.3004    6.2248 H         1 UNK         0.1417 
     83 H83        29.1279   23.7584    2.5317 H         1 UNK         0.1562 
     84 H84        28.8759   23.9952    6.2958 H         1 UNK         0.0748 
     85 H85        28.4667   22.7568    5.1376 H         1 UNK         0.0748 
     86 H86        28.3120   26.3214    6.2459 H         1 UNK         0.0940 
     87 H87        26.7215   26.8028    5.7324 H         1 UNK         0.0940 
     88 H88        29.3632   27.2151    4.2366 H         1 UNK         0.0703 
     89 H89        26.8623   26.9180    3.0030 H         1 UNK         0.3081 
     90 H90        26.2910   28.5240    0.8276 H         1 UNK         0.0719 
     91 H91        28.9469   28.0561   -0.6238 H         1 UNK         0.0809 
     92 H92        27.3902   28.2723   -1.4274 H         1 UNK         0.0809 
     93 H93        28.0689   29.5761   -0.4741 H         1 UNK         0.0809 
     94 H94        27.5645   26.0352   -0.0481 H         1 UNK         0.2990 
     95 H95        26.4667   23.8602    1.3329 H         1 UNK         0.0690 
     96 H96        24.2742   22.7850    0.7728 H         1 UNK         0.0788 
     97 H97        23.5694   24.3743    0.4767 H         1 UNK         0.0788 
     98 H98        24.1183   23.9363    2.0881 H         1 UNK         0.0788 
     99 H99        26.8645   23.4288   -0.8084 H         1 UNK         0.2993 
    100 H100       25.9585   23.1425   -3.2718 H         1 UNK         0.0949 
    101 H101       24.6192   24.8794   -4.4275 H         1 UNK         0.0767 
    102 H102       25.9311   26.0402   -4.2693 H         1 UNK         0.0767 
    103 H103       26.1284   24.6069   -5.2789 H         1 UNK         0.0767 
    104 H104       28.0993   25.1083   -3.5552 H         1 UNK         0.3013 
    105 H105       30.2829   29.0570    4.8803 H         1 UNK         0.3121 
    106 H106       30.7565   30.9126    5.9445 H         1 UNK         0.0774 
    107 H107       29.4008   31.9182    7.6982 H         1 UNK         0.0815 
    108 H108       27.9714   31.0329    7.1973 H         1 UNK         0.0815 
    109 H109       29.3520   30.1752    7.8861 H         1 UNK         0.0815 
    110 H110       29.1178   30.6713    3.3088 H         1 UNK         0.2987 
    111 H111       28.6455   33.6021    2.8919 H         1 UNK         0.0949 
    112 H112       27.1586   32.8696    1.0129 H         1 UNK         0.0806 
    113 H113       27.3641   31.1834    1.4871 H         1 UNK         0.0806 
    114 H114       26.5652   32.3131    2.5651 H         1 UNK         0.0806 
    115 H115       28.8940   31.4894    0.1824 H         1 UNK         0.3010 
    116 H116       31.3201   32.6960   -0.7701 H         1 UNK         0.0829 
    117 H117       29.4985   31.8513   -2.2884 H         1 UNK         0.0813 
    118 H118       31.0702   31.1756   -2.6804 H         1 UNK         0.0813 
    119 H119       29.8963   30.1942   -1.8265 H         1 UNK         0.0813 
    120 H120       30.6202   29.6972    1.0130 H         1 UNK         0.3038 
    121 H121       33.5336   29.0087    1.0968 H         1 UNK         0.0769 
    122 H122       32.7434   26.8669    2.0300 H         1 UNK         0.0811 
    123 H123       32.0531   27.1214    0.4339 H         1 UNK         0.0811 
    124 H124       31.0647   27.3573    1.8731 H         1 UNK         0.0811 
    125 H125       34.0024   30.7960    2.4131 H         1 UNK         0.3204 
    126 H126       32.5158   31.6372    4.6664 H         1 UNK         0.0748 
    127 H127       34.3839   33.2312    4.9640 H         1 UNK         0.0771 
    128 H128       35.3746   32.3184    3.8324 H         1 UNK         0.0771 
    129 H129       33.9096   33.1336    3.2796 H         1 UNK         0.0771 
    130 H130       32.8712   28.9746    5.1608 H         1 UNK         0.2980 
    131 H131       34.9332   28.3988    7.0933 H         1 UNK         0.0545 
    132 H132       34.6672   28.0408    9.4132 H         1 UNK         0.3459 
    133 H133       33.4004   28.8699   10.2795 H         1 UNK         0.3459 
    134 H134       32.3332   26.9240    6.3886 H         1 UNK         0.0616 
    135 H135       33.5662   26.2965    7.4634 H         1 UNK         0.0616 
    136 H136       33.6789   24.1855    6.2080 H         1 UNK         0.0634 
    137 H137       34.5204   23.9424    4.7016 H         1 UNK         0.0634 
@<TRIPOS>BOND
     1    1    2 1    
     2    1   72 1    
     3    1   73 1    
     4    1   74 1    
     5    2    3 2    
     6    2    4 am   BACKBONE|DICT|INTERRES
     7    4    5 1    
     8    4   75 1    
     9    5    6 1    
    10    5   35 1    
    11    5   76 1    
    12    6    7 1    
    13    6   77 1    
    14    6   78 1    
    15    7    8 1    
    16    8    9 1    
    17    8   79 1    
    18    8   80 1    
    19    9   10 ar   
    20    9   14 ar   
    21   10   11 ar   
    22   10   81 1    
    23   11   12 ar   
    24   11   71 1    
    25   12   13 ar   
    26   12   82 1    
    27   13   14 ar   
    28   13   15 1    
    29   14   83 1    
    30   15   16 1    
    31   15   84 1    
    32   15   85 1    
    33   16   17 1    
    34   17   18 1    
    35   17   86 1    
    36   17   87 1    
    37   18   19 1    
    38   18   37 1    
    39   18   88 1    
    40   19   20 am   BACKBONE|DICT|INTERRES
    41   19   89 1    
    42   20   21 2    
    43   20   22 1    
    44   22   23 1    
    45   22   24 1    
    46   22   90 1    
    47   23   91 1    
    48   23   92 1    
    49   23   93 1    
    50   24   25 am   BACKBONE|DICT|INTERRES
    51   24   94 1    
    52   25   26 2    
    53   25   27 1    
    54   27   28 1    
    55   27   29 1    
    56   27   95 1    
    57   28   96 1    
    58   28   97 1    
    59   28   98 1    
    60   29   30 am   BACKBONE|DICT|INTERRES
    61   29   99 1    
    62   30   31 2    
    63   30   32 1    
    64   32   33 1    
    65   32   34 1    
    66   32  100 1    
    67   33  101 1    
    68   33  102 1    
    69   33  103 1    
    70   34   35 am   BACKBONE|DICT|INTERRES
    71   34  104 1    
    72   35   36 2    
    73   37   38 2    
    74   37   39 am   BACKBONE|DICT|INTERRES
    75   39   40 1    
    76   39  105 1    
    77   40   41 1    
    78   40   42 1    
    79   40  106 1    
    80   41  107 1    
    81   41  108 1    
    82   41  109 1    
    83   42   43 2    
    84   42   44 am   BACKBONE|DICT|INTERRES
    85   44   45 1    
    86   44  110 1    
    87   45   46 1    
    88   45   47 1    
    89   45  111 1    
    90   46  112 1    
    91   46  113 1    
    92   46  114 1    
    93   47   48 2    
    94   47   49 am   BACKBONE|DICT|INTERRES
    95   49   50 1    
    96   49  115 1    
    97   50   51 1    
    98   50   52 1    
    99   50  116 1    
   100   51  117 1    
   101   51  118 1    
   102   51  119 1    
   103   52   53 2    
   104   52   54 am   BACKBONE|DICT|INTERRES
   105   54   55 1    
   106   54  120 1    
   107   55   56 1    
   108   55   57 1    
   109   55  121 1    
   110   56  122 1    
   111   56  123 1    
   112   56  124 1    
   113   57   58 2    
   114   57   59 am   BACKBONE|DICT|INTERRES
   115   59   60 1    
   116   59  125 1    
   117   60   61 1    
   118   60   62 1    
   119   60  126 1    
   120   61  127 1    
   121   61  128 1    
   122   61  129 1    
   123   62   63 2    
   124   62   64 am   BACKBONE|DICT|INTERRES
   125   64   65 1    
   126   64  130 1    
   127   65   66 1    
   128   65   69 1    
   129   65  131 1    
   130   66   67 am   BACKBONE|DICT|INTERRES
   131   66   68 2    
   132   67  132 1    
   133   67  133 1    
   134   69   70 1    
   135   69  134 1    
   136   69  135 1    
   137   70   71 1    
   138   71  136 1    
   139   71  137 1    
@<TRIPOS>SUBSTRUCTURE
     1 UNK         1 GROUP             0       ****    0 ROOT    
