@<TRIPOS>MOLECULE
3R136
137   139    1
SMALL
USER_CHARGES


@<TRIPOS>ATOM
      1 CA         32.9654   27.8691    0.5826 C.3       0 UNK        -0.1979 
      2 C          32.3176   26.5839    0.1008 C.2       0 UNK         0.4864 
      3 O          32.9447   25.8342   -0.6479 O.2       0 UNK        -0.5359 
      4 N          31.0670   26.3305    0.5164 N.am      1 UNK        -0.4318 
      5 CA         30.2722   25.1416    0.1642 C.3       1 UNK         0.0824 
      6 C6         30.9615   23.8071    0.5873 C.3       12 UNK        -0.0944 
      7 S7         29.8046   22.5709    1.2730 S.3       12 UNK        -0.2672 
      8 C8         30.4714   22.3073    2.9504 C.3       12 UNK         0.0333 
      9 C9         29.9065   23.3122    3.9432 C.ar      12 UNK        -0.0807 
     10 C10        30.4303   24.6064    4.0172 C.ar      12 UNK        -0.0894 
     11 C11        29.8774   25.5428    4.8935 C.ar      12 UNK        -0.0804 
     12 C12        28.8253   25.1690    5.7326 C.ar      12 UNK        -0.0824 
     13 C13        28.2810   23.8838    5.6546 C.ar      12 UNK        -0.0762 
     14 C14        28.8336   22.9553    4.7671 C.ar      12 UNK        -0.0782 
     15 C15        27.0417   23.5289    6.4635 C.3       12 UNK         0.0230 
     16 S16        25.5299   23.6244    5.4420 S.3       12 UNK        -0.2608 
     17 C17        25.4996   25.3895    4.9661 C.3       12 UNK        -0.0989 
     18 CA         26.1678   25.6351    3.5831 C.3       5 UNK         0.0716 
     19 N          25.4889   24.9586    2.4767 N.am      5 UNK        -0.4135 
     20 C          24.3109   25.2710    1.9239 C.2       4 UNK         0.5031 
     21 O          23.5734   26.1802    2.3097 O.2       4 UNK        -0.5229 
     22 CA         23.9210   24.4279    0.6929 C.3       4 UNK         0.0329 
     23 CB         22.4091   24.1399    0.6658 C.3       4 UNK        -0.2001 
     24 N          24.3137   25.0317   -0.5882 N.am      4 UNK        -0.4303 
     25 C          25.5206   25.5132   -0.9194 C.2       3 UNK         0.5044 
     26 O          26.4894   25.5609   -0.1509 O.2       3 UNK        -0.5152 
     27 CA         25.6843   26.0233   -2.3601 C.3       3 UNK         0.0319 
     28 CB         24.7675   27.2204   -2.6719 C.3       3 UNK        -0.2001 
     29 N          27.0789   26.4143   -2.5000 N.am      3 UNK        -0.4354 
     30 C          27.8592   26.3003   -3.5756 C.2       2 UNK         0.4964 
     31 O          27.4507   26.0034   -4.6987 O.2       2 UNK        -0.5047 
     32 CA         29.3637   26.5447   -3.3443 C.3       2 UNK         0.0288 
     33 CB         29.7462   27.9730   -3.7661 C.3       2 UNK        -0.2113 
     34 N          29.7902   26.3300   -1.9531 N.am      2 UNK        -0.4145 
     35 C          29.8171   25.1442   -1.3198 C.2       1 UNK         0.5006 
     36 O          29.4918   24.0887   -1.8670 O.2       1 UNK        -0.5103 
     37 C          26.4774   27.1229    3.2959 C.2       5 UNK         0.5055 
     38 O          26.3701   27.9583    4.1961 O.2       5 UNK        -0.5220 
     39 N          26.8773   27.4319    2.0521 N.am      6 UNK        -0.4450 
     40 CA         27.3397   28.7574    1.6331 C.3       6 UNK         0.0367 
     41 CB         27.4361   28.8107    0.1007 C.3       6 UNK        -0.1929 
     42 C          28.6958   29.0936    2.2735 C.2       6 UNK         0.5070 
     43 O          29.7132   28.5190    1.8770 O.2       6 UNK        -0.5237 
     44 N          28.6877   30.0135    3.2455 N.am      7 UNK        -0.4739 
     45 CA         29.8415   30.4301    4.0507 C.3       7 UNK         0.0276 
     46 CB         29.3481   30.8992    5.4316 C.3       7 UNK        -0.1927 
     47 C          30.7506   31.4602    3.3601 C.2       7 UNK         0.5013 
     48 O          31.2415   32.3834    4.0143 O.2       7 UNK        -0.5193 
     49 N          31.0018   31.2662    2.0594 N.am      8 UNK        -0.4253 
     50 CA         32.0124   32.0015    1.2981 C.3       8 UNK         0.0242 
     51 CB         31.9020   31.6347   -0.1900 C.3       8 UNK        -0.2000 
     52 C          33.4107   31.6798    1.8488 C.2       8 UNK         0.4948 
     53 O          33.7046   30.5063    2.0844 O.2       8 UNK        -0.5275 
     54 N          34.2145   32.7212    2.1084 N.am      9 UNK        -0.4246 
     55 CA         35.5450   32.6563    2.7344 C.3       9 UNK         0.0261 
     56 CB         36.5720   32.0715    1.7408 C.3       9 UNK        -0.1959 
     57 C          35.5525   31.9176    4.0932 C.2       9 UNK         0.5033 
     58 O          36.5129   31.2075    4.3979 O.2       9 UNK        -0.5390 
     59 N          34.4586   32.0583    4.8615 N.am      10 UNK        -0.4215 
     60 CA         34.1774   31.3792    6.1348 C.3       10 UNK         0.0240 
     61 CB         35.0915   31.9241    7.2532 C.3       10 UNK        -0.1982 
     62 C          34.2117   29.8385    6.0251 C.2       10 UNK         0.4970 
     63 O          34.6995   29.1698    6.9377 O.2       10 UNK        -0.4916 
     64 N          33.7058   29.3176    4.8985 N.am      11 UNK        -0.4279 
     65 CA         33.7147   27.9007    4.4951 C.3       11 UNK         0.1003 
     66 C          35.0968   27.3927    3.9845 C.2       11 UNK         0.5709 
     67 N          36.1171   28.2315    3.8405 N.am      11 UNK        -0.7358 
     68 O          35.2411   26.2120    3.6771 O.2       11 UNK        -0.4999 
     69 C69        33.0707   26.9112    5.5188 C.3       12 UNK        -0.0954 
     70 S70        31.4614   27.4421    6.1951 S.3       12 UNK        -0.2268 
     71 C71        30.3275   26.9907    4.8517 C.3       12 UNK         0.0203 
     72 H72        33.8654   27.6467    1.1543 H         1 UNK         0.0888 
     73 H73        33.2525   28.4881   -0.2662 H         1 UNK         0.0888 
     74 H74        32.2954   28.4482    1.2164 H         1 UNK         0.0888 
     75 H75        30.5939   27.0188    1.1009 H         1 UNK         0.3017 
     76 H76        29.3543   25.2481    0.7452 H         1 UNK         0.0873 
     77 H77        31.7332   24.0012    1.3317 H         1 UNK         0.0745 
     78 H78        31.5012   23.3549   -0.2471 H         1 UNK         0.0745 
     79 H79        31.5614   22.3518    2.9418 H         1 UNK         0.0705 
     80 H80        30.2187   21.2934    3.2643 H         1 UNK         0.0705 
     81 H81        31.2401   24.8997    3.3649 H         1 UNK         0.1334 
     82 H82        28.3863   25.9023    6.3956 H         1 UNK         0.1417 
     83 H83        28.4018   21.9662    4.6926 H         1 UNK         0.1562 
     84 H84        26.9403   24.1874    7.3277 H         1 UNK         0.0748 
     85 H85        27.1402   22.5173    6.8598 H         1 UNK         0.0748 
     86 H86        25.9901   25.9632    5.7539 H         1 UNK         0.0940 
     87 H87        24.4639   25.7325    4.9524 H         1 UNK         0.0940 
     88 H88        27.1519   25.1719    3.5998 H         1 UNK         0.0703 
     89 H89        26.0267   24.2260    2.0356 H         1 UNK         0.3081 
     90 H90        24.4346   23.4671    0.7664 H         1 UNK         0.0719 
     91 H91        21.8266   25.0500    0.5157 H         1 UNK         0.0809 
     92 H92        22.1505   23.4404   -0.1293 H         1 UNK         0.0809 
     93 H93        22.0799   23.6946    1.6058 H         1 UNK         0.0809 
     94 H94        23.5909   25.0610   -1.2924 H         1 UNK         0.2990 
     95 H95        25.4655   25.1986   -3.0416 H         1 UNK         0.0690 
     96 H96        24.9036   28.0359   -1.9622 H         1 UNK         0.0788 
     97 H97        23.7163   26.9327   -2.6397 H         1 UNK         0.0788 
     98 H98        24.9603   27.6137   -3.6702 H         1 UNK         0.0788 
     99 H99        27.5280   26.5670   -1.6067 H         1 UNK         0.2993 
    100 H100       29.9078   25.8388   -3.9756 H         1 UNK         0.0949 
    101 H101       30.8209   28.1373   -3.6840 H         1 UNK         0.0767 
    102 H102       29.4704   28.1599   -4.8051 H         1 UNK         0.0767 
    103 H103       29.2425   28.7235   -3.1553 H         1 UNK         0.0767 
    104 H104       30.1058   27.1429   -1.4452 H         1 UNK         0.3013 
    105 H105       26.8938   26.6963    1.3506 H         1 UNK         0.3121 
    106 H106       26.6005   29.4961    1.9503 H         1 UNK         0.0774 
    107 H107       27.7788   29.7900   -0.2360 H         1 UNK         0.0815 
    108 H108       28.1358   28.0708   -0.2855 H         1 UNK         0.0815 
    109 H109       26.4655   28.6334   -0.3587 H         1 UNK         0.0815 
    110 H110       27.8020   30.4300    3.4972 H         1 UNK         0.2987 
    111 H111       30.4864   29.5686    4.2118 H         1 UNK         0.0949 
    112 H112       30.1857   31.1309    6.0912 H         1 UNK         0.0806 
    113 H113       28.7318   31.7957    5.3562 H         1 UNK         0.0806 
    114 H114       28.7599   30.1251    5.9250 H         1 UNK         0.0806 
    115 H115       30.6078   30.4389    1.6286 H         1 UNK         0.3010 
    116 H116       31.8152   33.0698    1.4104 H         1 UNK         0.0829 
    117 H117       30.9239   31.9003   -0.5915 H         1 UNK         0.0813 
    118 H118       32.6497   32.1667   -0.7796 H         1 UNK         0.0813 
    119 H119       32.0528   30.5687   -0.3576 H         1 UNK         0.0813 
    120 H120       33.8749   33.6512    1.9025 H         1 UNK         0.3038 
    121 H121       35.8387   33.6850    2.9486 H         1 UNK         0.0769 
    122 H122       37.5846   32.1304    2.1418 H         1 UNK         0.0811 
    123 H123       36.5671   32.6167    0.7971 H         1 UNK         0.0811 
    124 H124       36.3690   31.0221    1.5232 H         1 UNK         0.0811 
    125 H125       33.7047   32.6312    4.5030 H         1 UNK         0.3204 
    126 H126       33.1493   31.6362    6.3951 H         1 UNK         0.0748 
    127 H127       34.8068   31.5186    8.2250 H         1 UNK         0.0771 
    128 H128       36.1366   31.6619    7.0848 H         1 UNK         0.0771 
    129 H129       35.0257   33.0097    7.3256 H         1 UNK         0.0771 
    130 H130       33.4336   29.9554    4.1607 H         1 UNK         0.2980 
    131 H131       33.0837   27.8804    3.6072 H         1 UNK         0.0545 
    132 H132       36.9942   27.8763    3.4960 H         1 UNK         0.3459 
    133 H133       36.0348   29.2123    4.0811 H         1 UNK         0.3459 
    134 H134       32.9386   25.9280    5.0644 H         1 UNK         0.0616 
    135 H135       33.7427   26.7551    6.3638 H         1 UNK         0.0616 
    136 H136       30.7902   27.2163    3.8910 H         1 UNK         0.0634 
    137 H137       29.4429   27.6247    4.9221 H         1 UNK         0.0634 
@<TRIPOS>BOND
     1    1    2 1    
     2    1   72 1    
     3    1   73 1    
     4    1   74 1    
     5    2    3 2    
     6    2    4 am   BACKBONE|DICT|INTERRES
     7    4    5 1    
     8    4   75 1    
     9    5    6 1    
    10    5   35 1    
    11    5   76 1    
    12    6    7 1    
    13    6   77 1    
    14    6   78 1    
    15    7    8 1    
    16    8    9 1    
    17    8   79 1    
    18    8   80 1    
    19    9   10 ar   
    20    9   14 ar   
    21   10   11 ar   
    22   10   81 1    
    23   11   12 ar   
    24   11   71 1    
    25   12   13 ar   
    26   12   82 1    
    27   13   14 ar   
    28   13   15 1    
    29   14   83 1    
    30   15   16 1    
    31   15   84 1    
    32   15   85 1    
    33   16   17 1    
    34   17   18 1    
    35   17   86 1    
    36   17   87 1    
    37   18   19 1    
    38   18   37 1    
    39   18   88 1    
    40   19   20 am   BACKBONE|DICT|INTERRES
    41   19   89 1    
    42   20   21 2    
    43   20   22 1    
    44   22   23 1    
    45   22   24 1    
    46   22   90 1    
    47   23   91 1    
    48   23   92 1    
    49   23   93 1    
    50   24   25 am   BACKBONE|DICT|INTERRES
    51   24   94 1    
    52   25   26 2    
    53   25   27 1    
    54   27   28 1    
    55   27   29 1    
    56   27   95 1    
    57   28   96 1    
    58   28   97 1    
    59   28   98 1    
    60   29   30 am   BACKBONE|DICT|INTERRES
    61   29   99 1    
    62   30   31 2    
    63   30   32 1    
    64   32   33 1    
    65   32   34 1    
    66   32  100 1    
    67   33  101 1    
    68   33  102 1    
    69   33  103 1    
    70   34   35 am   BACKBONE|DICT|INTERRES
    71   34  104 1    
    72   35   36 2    
    73   37   38 2    
    74   37   39 am   BACKBONE|DICT|INTERRES
    75   39   40 1    
    76   39  105 1    
    77   40   41 1    
    78   40   42 1    
    79   40  106 1    
    80   41  107 1    
    81   41  108 1    
    82   41  109 1    
    83   42   43 2    
    84   42   44 am   BACKBONE|DICT|INTERRES
    85   44   45 1    
    86   44  110 1    
    87   45   46 1    
    88   45   47 1    
    89   45  111 1    
    90   46  112 1    
    91   46  113 1    
    92   46  114 1    
    93   47   48 2    
    94   47   49 am   BACKBONE|DICT|INTERRES
    95   49   50 1    
    96   49  115 1    
    97   50   51 1    
    98   50   52 1    
    99   50  116 1    
   100   51  117 1    
   101   51  118 1    
   102   51  119 1    
   103   52   53 2    
   104   52   54 am   BACKBONE|DICT|INTERRES
   105   54   55 1    
   106   54  120 1    
   107   55   56 1    
   108   55   57 1    
   109   55  121 1    
   110   56  122 1    
   111   56  123 1    
   112   56  124 1    
   113   57   58 2    
   114   57   59 am   BACKBONE|DICT|INTERRES
   115   59   60 1    
   116   59  125 1    
   117   60   61 1    
   118   60   62 1    
   119   60  126 1    
   120   61  127 1    
   121   61  128 1    
   122   61  129 1    
   123   62   63 2    
   124   62   64 am   BACKBONE|DICT|INTERRES
   125   64   65 1    
   126   64  130 1    
   127   65   66 1    
   128   65   69 1    
   129   65  131 1    
   130   66   67 am   BACKBONE|DICT|INTERRES
   131   66   68 2    
   132   67  132 1    
   133   67  133 1    
   134   69   70 1    
   135   69  134 1    
   136   69  135 1    
   137   70   71 1    
   138   71  136 1    
   139   71  137 1    
@<TRIPOS>SUBSTRUCTURE
     1 UNK         1 GROUP             0       ****    0 ROOT    
