@<TRIPOS>MOLECULE
3R136
137   139    1
SMALL
USER_CHARGES


@<TRIPOS>ATOM
      1 CA         29.5939   22.2046    6.1158 C.3       0 UNK        -0.1979 
      2 C          28.9330   21.6866    4.8467 C.2       0 UNK         0.4864 
      3 O          28.7216   20.4798    4.7184 O.2       0 UNK        -0.5359 
      4 N          28.6102   22.5920    3.9172 N.am      1 UNK        -0.4318 
      5 CA         27.9310   22.3136    2.6510 C.3       1 UNK         0.0824 
      6 C6         28.8473   22.5840    1.4286 C.3       12 UNK        -0.0944 
      7 S7         30.1888   21.3617    1.2633 S.3       12 UNK        -0.2672 
      8 C8         31.5929   22.2230    2.0564 C.3       12 UNK         0.0333 
      9 C9         32.1638   23.4339    1.3132 C.ar      12 UNK        -0.0807 
     10 C10        33.0740   24.2491    1.9927 C.ar      12 UNK        -0.0894 
     11 C11        33.6571   25.3557    1.3692 C.ar      12 UNK        -0.0804 
     12 C12        33.3133   25.6619    0.0484 C.ar      12 UNK        -0.0824 
     13 C13        32.4154   24.8495   -0.6527 C.ar      12 UNK        -0.0762 
     14 C14        31.8457   23.7411   -0.0168 C.ar      12 UNK        -0.0782 
     15 C15        32.0993   25.1192   -2.1173 C.3       12 UNK         0.0230 
     16 S16        30.5212   25.9999   -2.3340 S.3       12 UNK        -0.2608 
     17 C17        31.0588   27.7452   -2.4123 C.3       12 UNK        -0.0989 
     18 CA         30.2147   28.7062   -1.5396 C.3       5 UNK         0.0716 
     19 N          28.7823   28.6056   -1.8279 N.am      5 UNK        -0.4135 
     20 C          27.8493   29.4627   -1.3938 C.2       4 UNK         0.5031 
     21 O          28.1127   30.5008   -0.7873 O.2       4 UNK        -0.5229 
     22 CA         26.3746   29.0889   -1.6339 C.3       4 UNK         0.0329 
     23 CB         25.8021   29.9013   -2.8065 C.3       4 UNK        -0.2001 
     24 N          26.1212   27.6606   -1.8671 N.am      4 UNK        -0.4303 
     25 C          26.4036   26.6636   -1.0162 C.2       3 UNK         0.5044 
     26 O          27.0134   26.8141    0.0456 O.2       3 UNK        -0.5152 
     27 CA         25.9856   25.2558   -1.4734 C.3       3 UNK         0.0319 
     28 CB         27.1160   24.5962   -2.2789 C.3       3 UNK        -0.2001 
     29 N          25.6412   24.3814   -0.3534 N.am      3 UNK        -0.4354 
     30 C          24.5893   24.5341    0.4639 C.2       2 UNK         0.4964 
     31 O          23.7470   25.4240    0.3367 O.2       2 UNK        -0.5047 
     32 CA         24.4261   23.5027    1.5981 C.3       2 UNK         0.0288 
     33 CB         23.2911   22.5178    1.2693 C.3       2 UNK        -0.2113 
     34 N          25.6525   22.7427    1.8674 N.am      2 UNK        -0.4145 
     35 C          26.6830   23.2091    2.5854 C.2       1 UNK         0.5006 
     36 O          26.6836   24.3056    3.1510 O.2       1 UNK        -0.5103 
     37 C          30.5533   28.5620   -0.0403 C.2       5 UNK         0.5055 
     38 O          31.6023   29.0585    0.3648 O.2       5 UNK        -0.5220 
     39 N          29.6743   27.9288    0.7498 N.am      6 UNK        -0.4450 
     40 CA         29.8222   27.7354    2.1922 C.3       6 UNK         0.0367 
     41 CB         29.7787   26.2283    2.4893 C.3       6 UNK        -0.1929 
     42 C          28.7432   28.5055    2.9763 C.2       6 UNK         0.5070 
     43 O          28.3900   28.0970    4.0832 O.2       6 UNK        -0.5237 
     44 N          28.2322   29.6115    2.4102 N.am      7 UNK        -0.4739 
     45 CA         27.2198   30.4769    3.0343 C.3       7 UNK         0.0276 
     46 CB         26.6707   31.4586    1.9869 C.3       7 UNK        -0.1927 
     47 C          27.7170   31.2418    4.2777 C.2       7 UNK         0.5013 
     48 O          26.8930   31.6958    5.0730 O.2       7 UNK        -0.5193 
     49 N          29.0398   31.3626    4.4270 N.am      8 UNK        -0.4253 
     50 CA         29.7295   31.8684    5.6087 C.3       8 UNK         0.0242 
     51 CB         30.3892   33.2164    5.2724 C.3       8 UNK        -0.2000 
     52 C          30.7889   30.8333    5.9991 C.2       8 UNK         0.4948 
     53 O          31.2900   30.1252    5.1225 O.2       8 UNK        -0.5275 
     54 N          31.1468   30.7883    7.2897 N.am      9 UNK        -0.4246 
     55 CA         32.1006   29.8285    7.8660 C.3       9 UNK         0.0261 
     56 CB         32.1329   30.0009    9.3936 C.3       9 UNK        -0.1959 
     57 C          33.5268   29.9069    7.2868 C.2       9 UNK         0.5033 
     58 O          34.2341   28.8988    7.2887 O.2       9 UNK        -0.5390 
     59 N          33.9163   31.0893    6.7923 N.am      10 UNK        -0.4215 
     60 CA         35.1779   31.3270    6.0861 C.3       10 UNK         0.0240 
     61 CB         35.5237   32.8228    6.1880 C.3       10 UNK        -0.1982 
     62 C          35.1506   30.8806    4.6092 C.2       10 UNK         0.4970 
     63 O          36.2132   30.8531    3.9864 O.2       10 UNK        -0.4916 
     64 N          33.9595   30.5634    4.0797 N.am      11 UNK        -0.4279 
     65 CA         33.6552   30.2394    2.6769 C.3       11 UNK         0.1003 
     66 C          33.8229   31.4402    1.7004 C.2       11 UNK         0.5709 
     67 N          33.3019   31.3117    0.4893 N.am      11 UNK        -0.7358 
     68 O          34.3871   32.4861    2.0175 O.2       11 UNK        -0.4999 
     69 C69        34.3741   28.9580    2.1646 C.3       12 UNK        -0.0954 
     70 S70        33.9425   27.4781    3.1363 S.3       12 UNK        -0.2268 
     71 C71        34.6988   26.1758    2.1172 C.3       12 UNK         0.0203 
     72 H72        29.7302   23.2857    6.0930 H         1 UNK         0.0888 
     73 H73        28.9842   21.9577    6.9845 H         1 UNK         0.0888 
     74 H74        30.5728   21.7431    6.2434 H         1 UNK         0.0888 
     75 H75        28.7233   23.5770    4.1153 H         1 UNK         0.3017 
     76 H76        27.5944   21.2748    2.6217 H         1 UNK         0.0873 
     77 H77        29.2686   23.5886    1.4670 H         1 UNK         0.0745 
     78 H78        28.2748   22.5375    0.5005 H         1 UNK         0.0745 
     79 H79        31.2927   22.5264    3.0597 H         1 UNK         0.0705 
     80 H80        32.3969   21.4975    2.1865 H         1 UNK         0.0705 
     81 H81        33.3436   24.0135    3.0135 H         1 UNK         0.1334 
     82 H82        33.7650   26.5144   -0.4400 H         1 UNK         0.1417 
     83 H83        31.1629   23.1166   -0.5749 H         1 UNK         0.1562 
     84 H84        32.0350   24.1686   -2.6489 H         1 UNK         0.0748 
     85 H85        32.9112   25.6680   -2.5967 H         1 UNK         0.0748 
     86 H86        32.1156   27.8275   -2.1505 H         1 UNK         0.0940 
     87 H87        30.9969   28.0593   -3.4553 H         1 UNK         0.0940 
     88 H88        30.5121   29.7218   -1.8103 H         1 UNK         0.0703 
     89 H89        28.4871   27.7684   -2.3081 H         1 UNK         0.3081 
     90 H90        25.8284   29.3656   -0.7301 H         1 UNK         0.0719 
     91 H91        26.2846   29.6436   -3.7502 H         1 UNK         0.0809 
     92 H92        24.7303   29.7369   -2.9194 H         1 UNK         0.0809 
     93 H93        25.9470   30.9712   -2.6484 H         1 UNK         0.0809 
     94 H94        25.6431   27.4315   -2.7271 H         1 UNK         0.2990 
     95 H95        25.1042   25.3435   -2.1122 H         1 UNK         0.0690 
     96 H96        26.8092   23.6278   -2.6746 H         1 UNK         0.0788 
     97 H97        28.0063   24.4408   -1.6679 H         1 UNK         0.0788 
     98 H98        27.4081   25.2127   -3.1302 H         1 UNK         0.0788 
     99 H99        26.2834   23.6299   -0.1601 H         1 UNK         0.2993 
    100 H100       24.1481   24.0547    2.4990 H         1 UNK         0.0949 
    101 H101       23.5071   21.9357    0.3724 H         1 UNK         0.0767 
    102 H102       23.1202   21.8211    2.0903 H         1 UNK         0.0767 
    103 H103       22.3528   23.0469    1.0960 H         1 UNK         0.0767 
    104 H104       25.7177   21.8259    1.4473 H         1 UNK         0.3013 
    105 H105       28.8125   27.5662    0.3489 H         1 UNK         0.3121 
    106 H106       30.7875   28.1154    2.5336 H         1 UNK         0.0774 
    107 H107       29.9808   26.0259    3.5415 H         1 UNK         0.0815 
    108 H108       28.8016   25.8077    2.2504 H         1 UNK         0.0815 
    109 H109       30.5291   25.6963    1.9070 H         1 UNK         0.0815 
    110 H110       28.5517   29.8773    1.4872 H         1 UNK         0.2987 
    111 H111       26.3969   29.8393    3.3650 H         1 UNK         0.0949 
    112 H112       27.4598   32.0832    1.5662 H         1 UNK         0.0806 
    113 H113       26.1855   30.9313    1.1663 H         1 UNK         0.0806 
    114 H114       25.9249   32.1242    2.4240 H         1 UNK         0.0806 
    115 H115       29.6364   30.8795    3.7686 H         1 UNK         0.3010 
    116 H116       29.0321   31.9936    6.4399 H         1 UNK         0.0829 
    117 H117       29.6464   33.9507    4.9600 H         1 UNK         0.0813 
    118 H118       30.9061   33.6291    6.1396 H         1 UNK         0.0813 
    119 H119       31.1209   33.1202    4.4688 H         1 UNK         0.0813 
    120 H120       30.6979   31.4190    7.9393 H         1 UNK         0.3038 
    121 H121       31.7240   28.8274    7.6449 H         1 UNK         0.0769 
    122 H122       32.4700   30.9976    9.6811 H         1 UNK         0.0811 
    123 H123       32.8130   29.2822    9.8533 H         1 UNK         0.0811 
    124 H124       31.1489   29.8374    9.8336 H         1 UNK         0.0811 
    125 H125       33.2731   31.8651    6.8520 H         1 UNK         0.3204 
    126 H126       35.9695   30.7606    6.5815 H         1 UNK         0.0748 
    127 H127       36.4825   33.0357    5.7130 H         1 UNK         0.0771 
    128 H128       34.7735   33.4450    5.6980 H         1 UNK         0.0771 
    129 H129       35.6020   33.1433    7.2272 H         1 UNK         0.0771 
    130 H130       33.1427   30.5638    4.6806 H         1 UNK         0.2980 
    131 H131       32.5848   30.0310    2.6822 H         1 UNK         0.0545 
    132 H132       33.3790   32.0657   -0.1738 H         1 UNK         0.3459 
    133 H133       32.7636   30.4768    0.2670 H         1 UNK         0.3459 
    134 H134       35.4571   29.0856    2.1774 H         1 UNK         0.0616 
    135 H135       34.1076   28.7550    1.1267 H         1 UNK         0.0616 
    136 H136       35.2786   25.5219    2.7703 H         1 UNK         0.0634 
    137 H137       35.4163   26.6075    1.4179 H         1 UNK         0.0634 
@<TRIPOS>BOND
     1    1    2 1    
     2    1   72 1    
     3    1   73 1    
     4    1   74 1    
     5    2    3 2    
     6    2    4 am   BACKBONE|DICT|INTERRES
     7    4    5 1    
     8    4   75 1    
     9    5    6 1    
    10    5   35 1    
    11    5   76 1    
    12    6    7 1    
    13    6   77 1    
    14    6   78 1    
    15    7    8 1    
    16    8    9 1    
    17    8   79 1    
    18    8   80 1    
    19    9   10 ar   
    20    9   14 ar   
    21   10   11 ar   
    22   10   81 1    
    23   11   12 ar   
    24   11   71 1    
    25   12   13 ar   
    26   12   82 1    
    27   13   14 ar   
    28   13   15 1    
    29   14   83 1    
    30   15   16 1    
    31   15   84 1    
    32   15   85 1    
    33   16   17 1    
    34   17   18 1    
    35   17   86 1    
    36   17   87 1    
    37   18   19 1    
    38   18   37 1    
    39   18   88 1    
    40   19   20 am   BACKBONE|DICT|INTERRES
    41   19   89 1    
    42   20   21 2    
    43   20   22 1    
    44   22   23 1    
    45   22   24 1    
    46   22   90 1    
    47   23   91 1    
    48   23   92 1    
    49   23   93 1    
    50   24   25 am   BACKBONE|DICT|INTERRES
    51   24   94 1    
    52   25   26 2    
    53   25   27 1    
    54   27   28 1    
    55   27   29 1    
    56   27   95 1    
    57   28   96 1    
    58   28   97 1    
    59   28   98 1    
    60   29   30 am   BACKBONE|DICT|INTERRES
    61   29   99 1    
    62   30   31 2    
    63   30   32 1    
    64   32   33 1    
    65   32   34 1    
    66   32  100 1    
    67   33  101 1    
    68   33  102 1    
    69   33  103 1    
    70   34   35 am   BACKBONE|DICT|INTERRES
    71   34  104 1    
    72   35   36 2    
    73   37   38 2    
    74   37   39 am   BACKBONE|DICT|INTERRES
    75   39   40 1    
    76   39  105 1    
    77   40   41 1    
    78   40   42 1    
    79   40  106 1    
    80   41  107 1    
    81   41  108 1    
    82   41  109 1    
    83   42   43 2    
    84   42   44 am   BACKBONE|DICT|INTERRES
    85   44   45 1    
    86   44  110 1    
    87   45   46 1    
    88   45   47 1    
    89   45  111 1    
    90   46  112 1    
    91   46  113 1    
    92   46  114 1    
    93   47   48 2    
    94   47   49 am   BACKBONE|DICT|INTERRES
    95   49   50 1    
    96   49  115 1    
    97   50   51 1    
    98   50   52 1    
    99   50  116 1    
   100   51  117 1    
   101   51  118 1    
   102   51  119 1    
   103   52   53 2    
   104   52   54 am   BACKBONE|DICT|INTERRES
   105   54   55 1    
   106   54  120 1    
   107   55   56 1    
   108   55   57 1    
   109   55  121 1    
   110   56  122 1    
   111   56  123 1    
   112   56  124 1    
   113   57   58 2    
   114   57   59 am   BACKBONE|DICT|INTERRES
   115   59   60 1    
   116   59  125 1    
   117   60   61 1    
   118   60   62 1    
   119   60  126 1    
   120   61  127 1    
   121   61  128 1    
   122   61  129 1    
   123   62   63 2    
   124   62   64 am   BACKBONE|DICT|INTERRES
   125   64   65 1    
   126   64  130 1    
   127   65   66 1    
   128   65   69 1    
   129   65  131 1    
   130   66   67 am   BACKBONE|DICT|INTERRES
   131   66   68 2    
   132   67  132 1    
   133   67  133 1    
   134   69   70 1    
   135   69  134 1    
   136   69  135 1    
   137   70   71 1    
   138   71  136 1    
   139   71  137 1    
@<TRIPOS>SUBSTRUCTURE
     1 UNK         1 GROUP             0       ****    0 ROOT    
