@<TRIPOS>MOLECULE
3R136
137   139    1
SMALL
USER_CHARGES


@<TRIPOS>ATOM
      1 CA         27.5392   22.7531    2.2587 C.3       0 UNK        -0.1979 
      2 C          27.6915   22.9906    0.7640 C.2       0 UNK         0.4864 
      3 O          26.8204   22.5965   -0.0112 O.2       0 UNK        -0.5359 
      4 N          28.8044   23.6140    0.3558 N.am      1 UNK        -0.4318 
      5 CA         29.1739   23.8431   -1.0457 C.3       1 UNK         0.0824 
      6 C6         30.6690   24.2271   -1.1804 C.3       12 UNK        -0.0944 
      7 S7         31.7910   22.7918   -1.2706 S.3       12 UNK        -0.2672 
      8 C8         31.6458   22.0091    0.3745 C.3       12 UNK         0.0333 
      9 C9         31.9941   22.8902    1.5757 C.ar      12 UNK        -0.0807 
     10 C10        32.8578   23.9914    1.4793 C.ar      12 UNK        -0.0894 
     11 C11        33.1870   24.7382    2.6139 C.ar      12 UNK        -0.0804 
     12 C12        32.6729   24.3628    3.8551 C.ar      12 UNK        -0.0824 
     13 C13        31.8014   23.2791    3.9689 C.ar      12 UNK        -0.0762 
     14 C14        31.4658   22.5478    2.8264 C.ar      12 UNK        -0.0782 
     15 C15        31.2471   22.8893    5.3319 C.3       12 UNK         0.0230 
     16 S16        29.5877   23.5804    5.6257 S.3       12 UNK        -0.2608 
     17 C17        29.9057   25.3794    5.6081 C.3       12 UNK        -0.0989 
     18 CA         29.2815   26.0549    4.3615 C.3       5 UNK         0.0716 
     19 N          27.8175   25.9492    4.4005 N.am      5 UNK        -0.4135 
     20 C          26.9827   26.0696    3.3637 C.2       4 UNK         0.5031 
     21 O          27.3624   26.2201    2.1935 O.2       4 UNK        -0.5229 
     22 CA         25.4805   26.0537    3.7026 C.3       4 UNK         0.0329 
     23 CB         25.1052   27.2539    4.5907 C.3       4 UNK        -0.2001 
     24 N          24.7238   26.1472    2.4606 N.am      4 UNK        -0.4303 
     25 C          24.1918   25.1176    1.7910 C.2       3 UNK         0.5044 
     26 O          23.9815   24.0025    2.2668 O.2       3 UNK        -0.5152 
     27 CA         23.9664   25.3780    0.2985 C.3       3 UNK         0.0319 
     28 CB         22.7598   26.3188    0.0920 C.3       3 UNK        -0.2001 
     29 N          25.2264   25.9373   -0.1971 N.am      3 UNK        -0.4354 
     30 C          25.5161   26.5171   -1.3650 C.2       2 UNK         0.4964 
     31 O          24.7234   26.6812   -2.2920 O.2       2 UNK        -0.5047 
     32 CA         26.9743   26.9805   -1.5066 C.3       2 UNK         0.0288 
     33 CB         27.2053   28.3003   -0.7509 C.3       2 UNK        -0.2113 
     34 N          27.9028   25.9587   -1.0103 N.am      2 UNK        -0.4145 
     35 C          28.2722   24.8894   -1.7316 C.2       1 UNK         0.5006 
     36 O          27.9313   24.7073   -2.9020 O.2       1 UNK        -0.5103 
     37 C          29.7120   27.5330    4.2033 C.2       5 UNK         0.5055 
     38 O          30.3681   28.0944    5.0853 O.2       5 UNK        -0.5220 
     39 N          29.2833   28.1468    3.0944 N.am      6 UNK        -0.4450 
     40 CA         29.3386   29.5844    2.8363 C.3       6 UNK         0.0367 
     41 CB         27.9382   30.1796    3.0785 C.3       6 UNK        -0.1929 
     42 C          29.8713   29.9037    1.4307 C.2       6 UNK         0.5070 
     43 O          29.5333   30.9504    0.8771 O.2       6 UNK        -0.5237 
     44 N          30.7099   29.0183    0.8712 N.am      7 UNK        -0.4739 
     45 CA         31.3244   29.1818   -0.4554 C.3       7 UNK         0.0276 
     46 CB         32.0308   27.8811   -0.8632 C.3       7 UNK        -0.1927 
     47 C          32.2832   30.3828   -0.5605 C.2       7 UNK         0.5013 
     48 O          32.4430   30.9315   -1.6512 O.2       7 UNK        -0.5193 
     49 N          32.8652   30.7885    0.5740 N.am      8 UNK        -0.4253 
     50 CA         33.6326   32.0219    0.7385 C.3       8 UNK         0.0242 
     51 CB         35.1103   31.6767    1.0038 C.3       8 UNK        -0.2000 
     52 C          32.9944   32.8517    1.8639 C.2       8 UNK         0.4948 
     53 O          33.6750   33.2179    2.8226 O.2       8 UNK        -0.5275 
     54 N          31.6748   33.0768    1.7610 N.am      9 UNK        -0.4246 
     55 CA         30.7735   33.7680    2.7001 C.3       9 UNK         0.0261 
     56 CB         31.2115   35.2233    2.9568 C.3       9 UNK        -0.1959 
     57 C          30.5340   33.0129    4.0212 C.2       9 UNK         0.5033 
     58 O          29.3904   32.9339    4.4691 O.2       9 UNK        -0.5390 
     59 N          31.5946   32.4450    4.5976 N.am      10 UNK        -0.4215 
     60 CA         31.5868   31.5368    5.7367 C.3       10 UNK         0.0240 
     61 CB         31.4206   32.3131    7.0569 C.3       10 UNK        -0.1982 
     62 C          32.9131   30.7771    5.6851 C.2       10 UNK         0.4970 
     63 O          33.9628   31.4097    5.8178 O.2       10 UNK        -0.4916 
     64 N          32.8539   29.4613    5.4616 N.am      11 UNK        -0.4279 
     65 CA         34.0363   28.5966    5.3197 C.3       11 UNK         0.1003 
     66 C          33.9555   27.2721    6.1288 C.2       11 UNK         0.5709 
     67 N          32.9200   27.0429    6.9281 N.am      11 UNK        -0.7358 
     68 O          34.8643   26.4488    6.0582 O.2       11 UNK        -0.4999 
     69 C69        34.4437   28.4151    3.8308 C.3       12 UNK        -0.0954 
     70 S70        33.2270   27.4955    2.8251 S.3       12 UNK        -0.2268 
     71 C71        34.1200   25.9344    2.5238 C.3       12 UNK         0.0203 
     72 H72        26.5653   23.1008    2.5998 H         1 UNK         0.0888 
     73 H73        27.6141   21.6885    2.4778 H         1 UNK         0.0888 
     74 H74        28.3058   23.2721    2.8331 H         1 UNK         0.0888 
     75 H75        29.4848   23.9087    1.0411 H         1 UNK         0.3017 
     76 H76        29.0096   22.9074   -1.5856 H         1 UNK         0.0873 
     77 H77        30.9774   24.8827   -0.3662 H         1 UNK         0.0745 
     78 H78        30.8498   24.7930   -2.0971 H         1 UNK         0.0745 
     79 H79        30.6373   21.6076    0.4786 H         1 UNK         0.0705 
     80 H80        32.3116   21.1454    0.3908 H         1 UNK         0.0705 
     81 H81        33.2871   24.2663    0.5262 H         1 UNK         0.1334 
     82 H82        32.9543   24.9232    4.7346 H         1 UNK         0.1417 
     83 H83        30.8046   21.6964    2.9182 H         1 UNK         0.1562 
     84 H84        31.9195   23.2150    6.1273 H         1 UNK         0.0748 
     85 H85        31.1937   21.8023    5.4084 H         1 UNK         0.0748 
     86 H86        30.9781   25.5590    5.6536 H         1 UNK         0.0940 
     87 H87        29.5008   25.8130    6.5244 H         1 UNK         0.0940 
     88 H88        29.6469   25.5289    3.4765 H         1 UNK         0.0703 
     89 H89        27.4212   25.8296    5.3210 H         1 UNK         0.3081 
     90 H90        25.2475   25.1240    4.2261 H         1 UNK         0.0719 
     91 H91        25.5878   27.1969    5.5669 H         1 UNK         0.0809 
     92 H92        25.3973   28.2022    4.1367 H         1 UNK         0.0809 
     93 H93        24.0304   27.2892    4.7700 H         1 UNK         0.0809 
     94 H94        24.8523   27.0080    1.9480 H         1 UNK         0.2990 
     95 H95        23.7842   24.4260   -0.2033 H         1 UNK         0.0690 
     96 H96        22.4900   26.3997   -0.9606 H         1 UNK         0.0788 
     97 H97        22.9553   27.3246    0.4652 H         1 UNK         0.0788 
     98 H98        21.8788   25.9416    0.6132 H         1 UNK         0.0788 
     99 H99        25.9914   25.8486    0.4627 H         1 UNK         0.2993 
    100 H100       27.1676   27.1610   -2.5668 H         1 UNK         0.0949 
    101 H101       27.0595   28.1906    0.3238 H         1 UNK         0.0767 
    102 H102       28.2148   28.6746   -0.9151 H         1 UNK         0.0767 
    103 H103       26.5167   29.0729   -1.0959 H         1 UNK         0.0767 
    104 H104       28.1932   26.0235   -0.0440 H         1 UNK         0.3013 
    105 H105       28.7235   27.5950    2.4498 H         1 UNK         0.3121 
    106 H106       30.0355   30.0580    3.5276 H         1 UNK         0.0774 
    107 H107       27.9296   31.2581    2.9176 H         1 UNK         0.0815 
    108 H108       27.1952   29.7446    2.4095 H         1 UNK         0.0815 
    109 H109       27.6093   30.0085    4.1035 H         1 UNK         0.0815 
    110 H110       30.9700   28.1978    1.4009 H         1 UNK         0.2987 
    111 H111       30.5203   29.3645   -1.1713 H         1 UNK         0.0949 
    112 H112       32.8072   27.5954   -0.1535 H         1 UNK         0.0806 
    113 H113       31.3174   27.0636   -0.9379 H         1 UNK         0.0806 
    114 H114       32.5043   27.9821   -1.8409 H         1 UNK         0.0806 
    115 H115       32.6696   30.2652    1.4159 H         1 UNK         0.3010 
    116 H116       33.5830   32.6316   -0.1663 H         1 UNK         0.0829 
    117 H117       35.2368   31.1139    1.9283 H         1 UNK         0.0813 
    118 H118       35.7122   32.5823    1.0894 H         1 UNK         0.0813 
    119 H119       35.5301   31.0845    0.1907 H         1 UNK         0.0813 
    120 H120       31.1994   32.6585    0.9701 H         1 UNK         0.3038 
    121 H121       29.8084   33.8056    2.1916 H         1 UNK         0.0769 
    122 H122       31.3192   35.7755    2.0232 H         1 UNK         0.0811 
    123 H123       32.1598   35.2797    3.4917 H         1 UNK         0.0811 
    124 H124       30.4705   35.7489    3.5606 H         1 UNK         0.0811 
    125 H125       32.5060   32.6043    4.1676 H         1 UNK         0.3204 
    126 H126       30.7588   30.8326    5.6349 H         1 UNK         0.0748 
    127 H127       30.4595   32.8257    7.0984 H         1 UNK         0.0771 
    128 H128       31.4650   31.6386    7.9128 H         1 UNK         0.0771 
    129 H129       32.2035   33.0614    7.1871 H         1 UNK         0.0771 
    130 H130       31.9537   28.9995    5.3408 H         1 UNK         0.2980 
    131 H131       34.8766   29.1027    5.7981 H         1 UNK         0.0545 
    132 H132       32.9004   26.1961    7.4727 H         1 UNK         0.3459 
    133 H133       32.1681   27.7089    7.0043 H         1 UNK         0.3459 
    134 H134       35.4246   27.9429    3.7614 H         1 UNK         0.0616 
    135 H135       34.5701   29.3958    3.3729 H         1 UNK         0.0616 
    136 H136       34.9172   25.7997    3.2558 H         1 UNK         0.0634 
    137 H137       34.6029   25.9852    1.5469 H         1 UNK         0.0634 
@<TRIPOS>BOND
     1    1    2 1    
     2    1   72 1    
     3    1   73 1    
     4    1   74 1    
     5    2    3 2    
     6    2    4 am   BACKBONE|DICT|INTERRES
     7    4    5 1    
     8    4   75 1    
     9    5    6 1    
    10    5   35 1    
    11    5   76 1    
    12    6    7 1    
    13    6   77 1    
    14    6   78 1    
    15    7    8 1    
    16    8    9 1    
    17    8   79 1    
    18    8   80 1    
    19    9   10 ar   
    20    9   14 ar   
    21   10   11 ar   
    22   10   81 1    
    23   11   12 ar   
    24   11   71 1    
    25   12   13 ar   
    26   12   82 1    
    27   13   14 ar   
    28   13   15 1    
    29   14   83 1    
    30   15   16 1    
    31   15   84 1    
    32   15   85 1    
    33   16   17 1    
    34   17   18 1    
    35   17   86 1    
    36   17   87 1    
    37   18   19 1    
    38   18   37 1    
    39   18   88 1    
    40   19   20 am   BACKBONE|DICT|INTERRES
    41   19   89 1    
    42   20   21 2    
    43   20   22 1    
    44   22   23 1    
    45   22   24 1    
    46   22   90 1    
    47   23   91 1    
    48   23   92 1    
    49   23   93 1    
    50   24   25 am   BACKBONE|DICT|INTERRES
    51   24   94 1    
    52   25   26 2    
    53   25   27 1    
    54   27   28 1    
    55   27   29 1    
    56   27   95 1    
    57   28   96 1    
    58   28   97 1    
    59   28   98 1    
    60   29   30 am   BACKBONE|DICT|INTERRES
    61   29   99 1    
    62   30   31 2    
    63   30   32 1    
    64   32   33 1    
    65   32   34 1    
    66   32  100 1    
    67   33  101 1    
    68   33  102 1    
    69   33  103 1    
    70   34   35 am   BACKBONE|DICT|INTERRES
    71   34  104 1    
    72   35   36 2    
    73   37   38 2    
    74   37   39 am   BACKBONE|DICT|INTERRES
    75   39   40 1    
    76   39  105 1    
    77   40   41 1    
    78   40   42 1    
    79   40  106 1    
    80   41  107 1    
    81   41  108 1    
    82   41  109 1    
    83   42   43 2    
    84   42   44 am   BACKBONE|DICT|INTERRES
    85   44   45 1    
    86   44  110 1    
    87   45   46 1    
    88   45   47 1    
    89   45  111 1    
    90   46  112 1    
    91   46  113 1    
    92   46  114 1    
    93   47   48 2    
    94   47   49 am   BACKBONE|DICT|INTERRES
    95   49   50 1    
    96   49  115 1    
    97   50   51 1    
    98   50   52 1    
    99   50  116 1    
   100   51  117 1    
   101   51  118 1    
   102   51  119 1    
   103   52   53 2    
   104   52   54 am   BACKBONE|DICT|INTERRES
   105   54   55 1    
   106   54  120 1    
   107   55   56 1    
   108   55   57 1    
   109   55  121 1    
   110   56  122 1    
   111   56  123 1    
   112   56  124 1    
   113   57   58 2    
   114   57   59 am   BACKBONE|DICT|INTERRES
   115   59   60 1    
   116   59  125 1    
   117   60   61 1    
   118   60   62 1    
   119   60  126 1    
   120   61  127 1    
   121   61  128 1    
   122   61  129 1    
   123   62   63 2    
   124   62   64 am   BACKBONE|DICT|INTERRES
   125   64   65 1    
   126   64  130 1    
   127   65   66 1    
   128   65   69 1    
   129   65  131 1    
   130   66   67 am   BACKBONE|DICT|INTERRES
   131   66   68 2    
   132   67  132 1    
   133   67  133 1    
   134   69   70 1    
   135   69  134 1    
   136   69  135 1    
   137   70   71 1    
   138   71  136 1    
   139   71  137 1    
@<TRIPOS>SUBSTRUCTURE
     1 UNK         1 GROUP             0       ****    0 ROOT    
