@<TRIPOS>MOLECULE
3R136
137   139    1
SMALL
USER_CHARGES


@<TRIPOS>ATOM
      1 CA         27.8062   21.8191    2.1681 C.3       0 UNK        -0.1979 
      2 C          27.8671   22.5285    0.8240 C.2       0 UNK         0.4864 
      3 O          26.9913   22.3161   -0.0163 O.2       0 UNK        -0.5359 
      4 N          28.8811   23.3812    0.6169 N.am      1 UNK        -0.4318 
      5 CA         29.0703   24.2054   -0.5819 C.3       1 UNK         0.0824 
      6 C6         30.4494   24.9124   -0.5714 C.3       12 UNK        -0.0944 
      7 S7         31.8010   23.8450   -1.1769 S.3       12 UNK        -0.2672 
      8 C8         32.1693   22.7318    0.2217 C.3       12 UNK         0.0333 
      9 C9         32.4819   23.4633    1.5211 C.ar      12 UNK        -0.0807 
     10 C10        33.5607   24.3505    1.5996 C.ar      12 UNK        -0.0894 
     11 C11        33.8633   25.0117    2.7954 C.ar      12 UNK        -0.0804 
     12 C12        33.0752   24.7547    3.9251 C.ar      12 UNK        -0.0824 
     13 C13        31.9735   23.8993    3.8520 C.ar      12 UNK        -0.0762 
     14 C14        31.6990   23.2350    2.6556 C.ar      12 UNK        -0.0782 
     15 C15        31.0719   23.7082    5.0641 C.3       12 UNK         0.0230 
     16 S16        29.3986   24.3895    4.7975 S.3       12 UNK        -0.2608 
     17 C17        29.7267   26.1527    4.4463 C.3       12 UNK        -0.0989 
     18 CA         29.1051   26.5907    3.0923 C.3       5 UNK         0.0716 
     19 N          27.6360   26.5333    3.0529 N.am      5 UNK        -0.4135 
     20 C          26.7897   27.2268    3.8305 C.2       4 UNK         0.5031 
     21 O          27.1431   27.9159    4.7883 O.2       4 UNK        -0.5229 
     22 CA         25.2924   27.2004    3.4702 C.3       4 UNK         0.0329 
     23 CB         24.8467   28.5830    2.9633 C.3       4 UNK        -0.2001 
     24 N          24.9213   26.2042    2.4646 N.am      4 UNK        -0.4303 
     25 C          24.7771   24.8908    2.6705 C.2       3 UNK         0.5044 
     26 O          25.0021   24.3416    3.7484 O.2       3 UNK        -0.5152 
     27 CA         24.3063   24.0379    1.4754 C.3       3 UNK         0.0319 
     28 CB         22.7683   24.0119    1.3833 C.3       3 UNK        -0.2001 
     29 N          24.9220   24.3933    0.1870 N.am      3 UNK        -0.4354 
     30 C          24.7963   25.5193   -0.5362 C.2       2 UNK         0.4964 
     31 O          24.0538   26.4509   -0.2218 O.2       2 UNK        -0.5047 
     32 CA         25.6942   25.6458   -1.7865 C.3       2 UNK         0.0288 
     33 CB         25.8919   27.1116   -2.2285 C.3       2 UNK        -0.2113 
     34 N          26.9895   24.9699   -1.6258 N.am      2 UNK        -0.4145 
     35 C          27.9146   25.2190   -0.6859 C.2       1 UNK         0.5006 
     36 O          27.8515   26.1469    0.1250 O.2       1 UNK        -0.5103 
     37 C          29.5757   27.9754    2.5948 C.2       5 UNK         0.5055 
     38 O          30.3365   28.6730    3.2681 O.2       5 UNK        -0.5220 
     39 N          29.0757   28.3524    1.4105 N.am      6 UNK        -0.4450 
     40 CA         29.2385   29.6703    0.7931 C.3       6 UNK         0.0367 
     41 CB         28.0888   29.8862   -0.2039 C.3       6 UNK        -0.1929 
     42 C          30.5941   29.8835    0.0962 C.2       6 UNK         0.5070 
     43 O          30.8552   30.9951   -0.3648 O.2       6 UNK        -0.5237 
     44 N          31.4348   28.8409    0.0251 N.am      7 UNK        -0.4739 
     45 CA         32.7320   28.8213   -0.6679 C.3       7 UNK         0.0276 
     46 CB         33.3300   27.4108   -0.5654 C.3       7 UNK        -0.1927 
     47 C          33.7512   29.8802   -0.2020 C.2       7 UNK         0.5013 
     48 O          34.6189   30.2627   -0.9878 O.2       7 UNK        -0.5193 
     49 N          33.6098   30.3541    1.0407 N.am      8 UNK        -0.4253 
     50 CA         34.3235   31.5076    1.5888 C.3       8 UNK         0.0242 
     51 CB         35.4881   31.0379    2.4830 C.3       8 UNK        -0.2000 
     52 C          33.3239   32.4155    2.3220 C.2       8 UNK         0.4948 
     53 O          33.6014   32.8600    3.4372 O.2       8 UNK        -0.5275 
     54 N          32.1475   32.6269    1.7087 N.am      9 UNK        -0.4246 
     55 CA         30.9696   33.3705    2.1851 C.3       9 UNK         0.0261 
     56 CB         31.2977   34.8515    2.4589 C.3       9 UNK        -0.1959 
     57 C          30.2576   32.7227    3.3869 C.2       9 UNK         0.5033 
     58 O          29.0340   32.5877    3.3612 O.2       9 UNK        -0.5390 
     59 N          31.0300   32.3202    4.3974 N.am      10 UNK        -0.4215 
     60 CA         30.5975   31.5970    5.5855 C.3       10 UNK         0.0240 
     61 CB         30.1324   32.5898    6.6692 C.3       10 UNK        -0.1982 
     62 C          31.7648   30.7091    6.0313 C.2       10 UNK         0.4970 
     63 O          32.3958   30.9799    7.0543 O.2       10 UNK        -0.4916 
     64 N          32.0556   29.6848    5.2219 N.am      11 UNK        -0.4279 
     65 CA         33.1023   28.6835    5.4719 C.3       11 UNK         0.1003 
     66 C          32.7230   27.6417    6.5725 C.2       11 UNK         0.5709 
     67 N          31.4727   27.5620    7.0134 N.am      11 UNK        -0.7358 
     68 O          33.5792   26.9097    7.0610 O.2       11 UNK        -0.4999 
     69 C69        33.5451   28.0359    4.1295 C.3       12 UNK        -0.0954 
     70 S70        35.1376   27.1456    4.2258 S.3       12 UNK        -0.2268 
     71 C71        35.0467   25.9861    2.8132 C.3       12 UNK         0.0203 
     72 H72        28.5557   22.1905    2.8646 H         1 UNK         0.0888 
     73 H73        26.8278   21.9661    2.6250 H         1 UNK         0.0888 
     74 H74        27.9629   20.7492    2.0349 H         1 UNK         0.0888 
     75 H75        29.5520   23.5373    1.3527 H         1 UNK         0.3017 
     76 H76        29.0241   23.5492   -1.4539 H         1 UNK         0.0873 
     77 H77        30.6975   25.3076    0.4140 H         1 UNK         0.0745 
     78 H78        30.4375   25.7779   -1.2374 H         1 UNK         0.0745 
     79 H79        31.3355   22.0404    0.3499 H         1 UNK         0.0705 
     80 H80        33.0288   22.1158   -0.0457 H         1 UNK         0.0705 
     81 H81        34.1652   24.5277    0.7202 H         1 UNK         0.1334 
     82 H82        33.2968   25.2387    4.8648 H         1 UNK         0.1417 
     83 H83        30.8738   22.5393    2.6164 H         1 UNK         0.1562 
     84 H84        31.5050   24.1754    5.9503 H         1 UNK         0.0748 
     85 H85        30.9900   22.6437    5.2877 H         1 UNK         0.0748 
     86 H86        30.8023   26.3195    4.4397 H         1 UNK         0.0940 
     87 H87        29.3454   26.7517    5.2728 H         1 UNK         0.0940 
     88 H88        29.4550   25.8817    2.3424 H         1 UNK         0.0703 
     89 H89        27.2467   26.0498    2.2545 H         1 UNK         0.3081 
     90 H90        24.7445   26.9790    4.3885 H         1 UNK         0.0719 
     91 H91        25.0641   29.3607    3.6969 H         1 UNK         0.0809 
     92 H92        25.3569   28.8555    2.0383 H         1 UNK         0.0809 
     93 H93        23.7733   28.6099    2.7747 H         1 UNK         0.0809 
     94 H94        24.6800   26.5500    1.5387 H         1 UNK         0.2990 
     95 H95        24.6342   23.0171    1.6778 H         1 UNK         0.0690 
     96 H96        22.4308   23.3572    0.5799 H         1 UNK         0.0788 
     97 H97        22.3502   25.0032    1.2066 H         1 UNK         0.0788 
     98 H98        22.3311   23.6389    2.3104 H         1 UNK         0.0788 
     99 H99        25.5955   23.7059   -0.1425 H         1 UNK         0.2993 
    100 H100       25.1699   25.1245   -2.5889 H         1 UNK         0.0949 
    101 H101       26.3071   27.7206   -1.4260 H         1 UNK         0.0767 
    102 H102       26.5592   27.1836   -3.0872 H         1 UNK         0.0767 
    103 H103       24.9422   27.5635   -2.5173 H         1 UNK         0.0767 
    104 H104       27.1243   24.1575   -2.2128 H         1 UNK         0.3013 
    105 H105       28.4982   27.6823    0.9044 H         1 UNK         0.3121 
    106 H106       29.1559   30.4260    1.5766 H         1 UNK         0.0774 
    107 H107       28.1480   29.1869   -1.0386 H         1 UNK         0.0815 
    108 H108       27.1168   29.7619    0.2736 H         1 UNK         0.0815 
    109 H109       28.1161   30.8937   -0.6212 H         1 UNK         0.0815 
    110 H110       31.1316   27.9730    0.4397 H         1 UNK         0.2987 
    111 H111       32.5371   29.0300   -1.7220 H         1 UNK         0.0949 
    112 H112       32.7573   26.6990   -1.1576 H         1 UNK         0.0806 
    113 H113       34.3550   27.3806   -0.9382 H         1 UNK         0.0806 
    114 H114       33.3411   27.0578    0.4644 H         1 UNK         0.0806 
    115 H115       32.8575   29.9820    1.6032 H         1 UNK         0.3010 
    116 H116       34.7392   32.1074    0.7761 H         1 UNK         0.0829 
    117 H117       35.1367   30.5485    3.3910 H         1 UNK         0.0813 
    118 H118       36.1020   31.8843    2.7930 H         1 UNK         0.0813 
    119 H119       36.1398   30.3411    1.9557 H         1 UNK         0.0813 
    120 H120       31.9978   32.1620    0.8169 H         1 UNK         0.3038 
    121 H121       30.2601   33.3445    1.3561 H         1 UNK         0.0769 
    122 H122       31.7364   35.3282    1.5824 H         1 UNK         0.0811 
    123 H123       31.9931   34.9728    3.2898 H         1 UNK         0.0811 
    124 H124       30.3940   35.4075    2.7119 H         1 UNK         0.0811 
    125 H125       32.0342   32.4753    4.3024 H         1 UNK         0.3204 
    126 H126       29.7629   30.9396    5.3302 H         1 UNK         0.0748 
    127 H127       30.9214   33.2936    6.9374 H         1 UNK         0.0771 
    128 H128       29.2707   33.1667    6.3330 H         1 UNK         0.0771 
    129 H129       29.8365   32.0646    7.5782 H         1 UNK         0.0771 
    130 H130       31.4407   29.4866    4.4334 H         1 UNK         0.2980 
    131 H131       33.9656   29.2246    5.8640 H         1 UNK         0.0545 
    132 H132       30.7601   28.1709    6.6473 H         1 UNK         0.3459 
    133 H133       31.2495   26.8989    7.7380 H         1 UNK         0.3459 
    134 H134       33.6662   28.8057    3.3700 H         1 UNK         0.0616 
    135 H135       32.7612   27.3865    3.7450 H         1 UNK         0.0616 
    136 H136       35.9670   25.4010    2.8013 H         1 UNK         0.0634 
    137 H137       35.0527   26.5777    1.8980 H         1 UNK         0.0634 
@<TRIPOS>BOND
     1    1    2 1    
     2    1   72 1    
     3    1   73 1    
     4    1   74 1    
     5    2    3 2    
     6    2    4 am   BACKBONE|DICT|INTERRES
     7    4    5 1    
     8    4   75 1    
     9    5    6 1    
    10    5   35 1    
    11    5   76 1    
    12    6    7 1    
    13    6   77 1    
    14    6   78 1    
    15    7    8 1    
    16    8    9 1    
    17    8   79 1    
    18    8   80 1    
    19    9   10 ar   
    20    9   14 ar   
    21   10   11 ar   
    22   10   81 1    
    23   11   12 ar   
    24   11   71 1    
    25   12   13 ar   
    26   12   82 1    
    27   13   14 ar   
    28   13   15 1    
    29   14   83 1    
    30   15   16 1    
    31   15   84 1    
    32   15   85 1    
    33   16   17 1    
    34   17   18 1    
    35   17   86 1    
    36   17   87 1    
    37   18   19 1    
    38   18   37 1    
    39   18   88 1    
    40   19   20 am   BACKBONE|DICT|INTERRES
    41   19   89 1    
    42   20   21 2    
    43   20   22 1    
    44   22   23 1    
    45   22   24 1    
    46   22   90 1    
    47   23   91 1    
    48   23   92 1    
    49   23   93 1    
    50   24   25 am   BACKBONE|DICT|INTERRES
    51   24   94 1    
    52   25   26 2    
    53   25   27 1    
    54   27   28 1    
    55   27   29 1    
    56   27   95 1    
    57   28   96 1    
    58   28   97 1    
    59   28   98 1    
    60   29   30 am   BACKBONE|DICT|INTERRES
    61   29   99 1    
    62   30   31 2    
    63   30   32 1    
    64   32   33 1    
    65   32   34 1    
    66   32  100 1    
    67   33  101 1    
    68   33  102 1    
    69   33  103 1    
    70   34   35 am   BACKBONE|DICT|INTERRES
    71   34  104 1    
    72   35   36 2    
    73   37   38 2    
    74   37   39 am   BACKBONE|DICT|INTERRES
    75   39   40 1    
    76   39  105 1    
    77   40   41 1    
    78   40   42 1    
    79   40  106 1    
    80   41  107 1    
    81   41  108 1    
    82   41  109 1    
    83   42   43 2    
    84   42   44 am   BACKBONE|DICT|INTERRES
    85   44   45 1    
    86   44  110 1    
    87   45   46 1    
    88   45   47 1    
    89   45  111 1    
    90   46  112 1    
    91   46  113 1    
    92   46  114 1    
    93   47   48 2    
    94   47   49 am   BACKBONE|DICT|INTERRES
    95   49   50 1    
    96   49  115 1    
    97   50   51 1    
    98   50   52 1    
    99   50  116 1    
   100   51  117 1    
   101   51  118 1    
   102   51  119 1    
   103   52   53 2    
   104   52   54 am   BACKBONE|DICT|INTERRES
   105   54   55 1    
   106   54  120 1    
   107   55   56 1    
   108   55   57 1    
   109   55  121 1    
   110   56  122 1    
   111   56  123 1    
   112   56  124 1    
   113   57   58 2    
   114   57   59 am   BACKBONE|DICT|INTERRES
   115   59   60 1    
   116   59  125 1    
   117   60   61 1    
   118   60   62 1    
   119   60  126 1    
   120   61  127 1    
   121   61  128 1    
   122   61  129 1    
   123   62   63 2    
   124   62   64 am   BACKBONE|DICT|INTERRES
   125   64   65 1    
   126   64  130 1    
   127   65   66 1    
   128   65   69 1    
   129   65  131 1    
   130   66   67 am   BACKBONE|DICT|INTERRES
   131   66   68 2    
   132   67  132 1    
   133   67  133 1    
   134   69   70 1    
   135   69  134 1    
   136   69  135 1    
   137   70   71 1    
   138   71  136 1    
   139   71  137 1    
@<TRIPOS>SUBSTRUCTURE
     1 UNK         1 GROUP             0       ****    0 ROOT    
