@<TRIPOS>MOLECULE
3R136
137   139    1
SMALL
USER_CHARGES


@<TRIPOS>ATOM
      1 CA         27.4159   22.1287    0.7768 C.3       0 UNK        -0.1979 
      2 C          28.4018   22.9835   -0.0029 C.2       0 UNK         0.4864 
      3 O          28.0075   23.6367   -0.9706 O.2       0 UNK        -0.5359 
      4 N          29.6775   22.9594    0.4069 N.am      1 UNK        -0.4318 
      5 CA         30.8451   23.4803   -0.3175 C.3       1 UNK         0.0824 
      6 C6         32.1904   23.2113    0.4169 C.3       12 UNK        -0.0944 
      7 S7         32.2313   21.6362    1.3460 S.3       12 UNK        -0.2672 
      8 C8         32.6874   22.1823    3.0270 C.3       12 UNK         0.0333 
      9 C9         31.7371   23.2206    3.6185 C.ar      12 UNK        -0.0807 
     10 C10        32.1727   24.5360    3.8080 C.ar      12 UNK        -0.0894 
     11 C11        31.3451   25.4815    4.4206 C.ar      12 UNK        -0.0804 
     12 C12        30.0587   25.1120    4.8216 C.ar      12 UNK        -0.0824 
     13 C13        29.6077   23.8026    4.6344 C.ar      12 UNK        -0.0762 
     14 C14        30.4502   22.8604    4.0316 C.ar      12 UNK        -0.0782 
     15 C15        28.2299   23.3919    5.1298 C.3       12 UNK         0.0230 
     16 S16        26.9510   23.6538    3.8650 S.3       12 UNK        -0.2608 
     17 C17        26.3660   25.3546    4.1896 C.3       12 UNK        -0.0989 
     18 CA         26.6431   26.3603    3.0326 C.3       5 UNK         0.0716 
     19 N          26.2411   25.8634    1.7078 N.am      5 UNK        -0.4135 
     20 C          25.0006   25.5619    1.2928 C.2       4 UNK         0.5031 
     21 O          23.9908   25.6805    1.9889 O.2       4 UNK        -0.5229 
     22 CA         24.8830   25.0116   -0.1446 C.3       4 UNK         0.0329 
     23 CB         23.4533   25.1087   -0.7221 C.3       4 UNK        -0.2001 
     24 N          25.8871   25.5838   -1.0534 N.am      4 UNK        -0.4303 
     25 C          25.9386   26.8496   -1.4933 C.2       3 UNK         0.5044 
     26 O          25.0847   27.7014   -1.2441 O.2       3 UNK        -0.5152 
     27 CA         27.1916   27.2315   -2.3066 C.3       3 UNK         0.0319 
     28 CB         27.1214   28.6725   -2.8552 C.3       3 UNK        -0.2001 
     29 N          28.4389   27.0437   -1.5527 N.am      3 UNK        -0.4354 
     30 C          28.7431   27.5453   -0.3467 C.2       2 UNK         0.4964 
     31 O          27.9607   28.2033    0.3394 O.2       2 UNK        -0.5047 
     32 CA         30.1461   27.2268    0.1978 C.3       2 UNK         0.0288 
     33 CB         30.4215   27.8810    1.5636 C.3       2 UNK        -0.2113 
     34 N          30.3462   25.7844    0.3227 N.am      2 UNK        -0.4145 
     35 C          30.7253   24.9728   -0.6728 C.2       1 UNK         0.5006 
     36 O          30.9473   25.3555   -1.8232 O.2       1 UNK        -0.5103 
     37 C          26.0512   27.7617    3.3264 C.2       5 UNK         0.5055 
     38 O          25.6498   28.0286    4.4617 O.2       5 UNK        -0.5220 
     39 N          25.9781   28.6200    2.2998 N.am      6 UNK        -0.4450 
     40 CA         25.3179   29.9269    2.3446 C.3       6 UNK         0.0367 
     41 CB         24.1085   29.9037    1.3955 C.3       6 UNK        -0.1929 
     42 C          26.2514   31.0924    1.9828 C.2       6 UNK         0.5070 
     43 O          25.9666   32.2193    2.3918 O.2       6 UNK        -0.5237 
     44 N          27.3276   30.8394    1.2246 N.am      7 UNK        -0.4739 
     45 CA         28.3080   31.8593    0.8438 C.3       7 UNK         0.0276 
     46 CB         29.1088   31.3753   -0.3764 C.3       7 UNK        -0.1927 
     47 C          29.2520   32.1900    2.0098 C.2       7 UNK         0.5013 
     48 O          29.5740   31.3100    2.8123 O.2       7 UNK        -0.5193 
     49 N          29.7274   33.4409    2.0531 N.am      8 UNK        -0.4253 
     50 CA         30.6789   33.9499    3.0464 C.3       8 UNK         0.0242 
     51 CB         30.5064   35.4765    3.1648 C.3       8 UNK        -0.2000 
     52 C          32.1293   33.5380    2.7189 C.2       8 UNK         0.4948 
     53 O          33.0028   34.3982    2.5879 O.2       8 UNK        -0.5275 
     54 N          32.3519   32.2284    2.5751 N.am      9 UNK        -0.4246 
     55 CA         33.6497   31.6033    2.3344 C.3       9 UNK         0.0261 
     56 CB         33.4922   30.5633    1.2121 C.3       9 UNK        -0.1959 
     57 C          34.1357   30.9247    3.6215 C.2       9 UNK         0.5033 
     58 O          33.3151   30.5252    4.4519 O.2       9 UNK        -0.5390 
     59 N          35.4598   30.7753    3.7513 N.am      10 UNK        -0.4215 
     60 CA         36.0948   30.0164    4.8296 C.3       10 UNK         0.0240 
     61 CB         37.5926   30.3598    4.8892 C.3       10 UNK        -0.1982 
     62 C          35.8844   28.5111    4.6058 C.2       10 UNK         0.4970 
     63 O          36.1825   28.0174    3.5156 O.2       10 UNK        -0.4916 
     64 N          35.3723   27.8199    5.6288 N.am      11 UNK        -0.4279 
     65 CA         35.0257   26.3907    5.5667 C.3       11 UNK         0.1003 
     66 C          36.2272   25.4207    5.7574 C.2       11 UNK         0.5709 
     67 N          37.4176   25.8937    6.1076 N.am      11 UNK        -0.7358 
     68 O          36.0785   24.2155    5.5709 O.2       11 UNK        -0.4999 
     69 C69        33.8529   26.0327    6.5206 C.3       12 UNK        -0.0954 
     70 S70        32.3988   27.1342    6.3920 S.3       12 UNK        -0.2268 
     71 C71        31.8455   26.8966    4.6724 C.3       12 UNK         0.0203 
     72 H72        26.6002   22.7373    1.1587 H         1 UNK         0.0888 
     73 H73        26.9919   21.3634    0.1275 H         1 UNK         0.0888 
     74 H74        27.8888   21.6301    1.6228 H         1 UNK         0.0888 
     75 H75        29.9193   22.4082    1.2188 H         1 UNK         0.3017 
     76 H76        30.8723   22.9326   -1.2619 H         1 UNK         0.0873 
     77 H77        33.0047   23.1930   -0.3097 H         1 UNK         0.0745 
     78 H78        32.4391   24.0250    1.0987 H         1 UNK         0.0745 
     79 H79        33.7085   22.5666    3.0033 H         1 UNK         0.0705 
     80 H80        32.7118   21.3101    3.6817 H         1 UNK         0.0705 
     81 H81        33.1698   24.8162    3.5000 H         1 UNK         0.1334 
     82 H82        29.4191   25.8385    5.3038 H         1 UNK         0.1417 
     83 H83        30.1133   21.8405    3.9032 H         1 UNK         0.1562 
     84 H84        27.9747   23.9234    6.0476 H         1 UNK         0.0748 
     85 H85        28.2380   22.3335    5.3946 H         1 UNK         0.0748 
     86 H86        26.8125   25.7188    5.1161 H         1 UNK         0.0940 
     87 H87        25.2937   25.2935    4.3848 H         1 UNK         0.0940 
     88 H88        27.7228   26.4998    2.9804 H         1 UNK         0.0703 
     89 H89        26.9884   25.7572    1.0395 H         1 UNK         0.3081 
     90 H90        25.1177   23.9499   -0.0806 H         1 UNK         0.0719 
     91 H91        23.0799   26.1330   -0.7216 H         1 UNK         0.0809 
     92 H92        23.4106   24.7342   -1.7447 H         1 UNK         0.0809 
     93 H93        22.7557   24.5144   -0.1308 H         1 UNK         0.0809 
     94 H94        26.6631   24.9628   -1.2791 H         1 UNK         0.2990 
     95 H95        27.2331   26.5513   -3.1587 H         1 UNK         0.0690 
     96 H96        28.0033   28.9172   -3.4470 H         1 UNK         0.0788 
     97 H97        27.0412   29.4057   -2.0520 H         1 UNK         0.0788 
     98 H98        26.2510   28.8019   -3.4996 H         1 UNK         0.0788 
     99 H99        29.1432   26.4661   -1.9998 H         1 UNK         0.2993 
    100 H100       30.8673   27.6339   -0.5146 H         1 UNK         0.0949 
    101 H101       31.4464   27.6956    1.8826 H         1 UNK         0.0767 
    102 H102       30.2901   28.9620    1.5224 H         1 UNK         0.0767 
    103 H103       29.7545   27.5042    2.3381 H         1 UNK         0.0767 
    104 H104       30.1587   25.3735    1.2261 H         1 UNK         0.3013 
    105 H105       26.4092   28.3554    1.4176 H         1 UNK         0.3121 
    106 H106       24.9471   30.1288    3.3516 H         1 UNK         0.0774 
    107 H107       23.5567   30.8434    1.4412 H         1 UNK         0.0815 
    108 H108       24.4142   29.7547    0.3593 H         1 UNK         0.0815 
    109 H109       23.4143   29.1048    1.6570 H         1 UNK         0.0815 
    110 H110       27.5376   29.8836    0.9486 H         1 UNK         0.2987 
    111 H111       27.7701   32.7672    0.5610 H         1 UNK         0.0949 
    112 H112       29.6773   30.4721   -0.1587 H         1 UNK         0.0806 
    113 H113       28.4545   31.1647   -1.2216 H         1 UNK         0.0806 
    114 H114       29.8214   32.1338   -0.7030 H         1 UNK         0.0806 
    115 H115       29.4503   34.0896    1.3301 H         1 UNK         0.3010 
    116 H116       30.4373   33.5153    4.0191 H         1 UNK         0.0829 
    117 H117       29.4870   35.7402    3.4473 H         1 UNK         0.0813 
    118 H118       31.1674   35.8866    3.9296 H         1 UNK         0.0813 
    119 H119       30.7376   35.9841    2.2274 H         1 UNK         0.0813 
    120 H120       31.5781   31.5982    2.7654 H         1 UNK         0.3038 
    121 H121       34.3841   32.3504    2.0255 H         1 UNK         0.0769 
    122 H122       34.4442   30.0814    0.9854 H         1 UNK         0.0811 
    123 H123       33.1349   31.0252    0.2914 H         1 UNK         0.0811 
    124 H124       32.7875   29.7781    1.4870 H         1 UNK         0.0811 
    125 H125       36.0633   31.0912    3.0055 H         1 UNK         0.3204 
    126 H126       35.6376   30.3101    5.7774 H         1 UNK         0.0748 
    127 H127       38.0837   29.8225    5.7016 H         1 UNK         0.0771 
    128 H128       38.1073   30.0937    3.9648 H         1 UNK         0.0771 
    129 H129       37.7488   31.4243    5.0657 H         1 UNK         0.0771 
    130 H130       35.1452   28.2945    6.4901 H         1 UNK         0.2980 
    131 H131       34.6795   26.1910    4.5529 H         1 UNK         0.0545 
    132 H132       37.5520   26.8801    6.2590 H         1 UNK         0.3459 
    133 H133       38.1884   25.2544    6.2219 H         1 UNK         0.3459 
    134 H134       34.1929   26.0679    7.5571 H         1 UNK         0.0616 
    135 H135       33.5188   25.0077    6.3508 H         1 UNK         0.0616 
    136 H136       32.6508   27.1579    3.9852 H         1 UNK         0.0634 
    137 H137       31.0418   27.6069    4.4748 H         1 UNK         0.0634 
@<TRIPOS>BOND
     1    1    2 1    
     2    1   72 1    
     3    1   73 1    
     4    1   74 1    
     5    2    3 2    
     6    2    4 am   BACKBONE|DICT|INTERRES
     7    4    5 1    
     8    4   75 1    
     9    5    6 1    
    10    5   35 1    
    11    5   76 1    
    12    6    7 1    
    13    6   77 1    
    14    6   78 1    
    15    7    8 1    
    16    8    9 1    
    17    8   79 1    
    18    8   80 1    
    19    9   10 ar   
    20    9   14 ar   
    21   10   11 ar   
    22   10   81 1    
    23   11   12 ar   
    24   11   71 1    
    25   12   13 ar   
    26   12   82 1    
    27   13   14 ar   
    28   13   15 1    
    29   14   83 1    
    30   15   16 1    
    31   15   84 1    
    32   15   85 1    
    33   16   17 1    
    34   17   18 1    
    35   17   86 1    
    36   17   87 1    
    37   18   19 1    
    38   18   37 1    
    39   18   88 1    
    40   19   20 am   BACKBONE|DICT|INTERRES
    41   19   89 1    
    42   20   21 2    
    43   20   22 1    
    44   22   23 1    
    45   22   24 1    
    46   22   90 1    
    47   23   91 1    
    48   23   92 1    
    49   23   93 1    
    50   24   25 am   BACKBONE|DICT|INTERRES
    51   24   94 1    
    52   25   26 2    
    53   25   27 1    
    54   27   28 1    
    55   27   29 1    
    56   27   95 1    
    57   28   96 1    
    58   28   97 1    
    59   28   98 1    
    60   29   30 am   BACKBONE|DICT|INTERRES
    61   29   99 1    
    62   30   31 2    
    63   30   32 1    
    64   32   33 1    
    65   32   34 1    
    66   32  100 1    
    67   33  101 1    
    68   33  102 1    
    69   33  103 1    
    70   34   35 am   BACKBONE|DICT|INTERRES
    71   34  104 1    
    72   35   36 2    
    73   37   38 2    
    74   37   39 am   BACKBONE|DICT|INTERRES
    75   39   40 1    
    76   39  105 1    
    77   40   41 1    
    78   40   42 1    
    79   40  106 1    
    80   41  107 1    
    81   41  108 1    
    82   41  109 1    
    83   42   43 2    
    84   42   44 am   BACKBONE|DICT|INTERRES
    85   44   45 1    
    86   44  110 1    
    87   45   46 1    
    88   45   47 1    
    89   45  111 1    
    90   46  112 1    
    91   46  113 1    
    92   46  114 1    
    93   47   48 2    
    94   47   49 am   BACKBONE|DICT|INTERRES
    95   49   50 1    
    96   49  115 1    
    97   50   51 1    
    98   50   52 1    
    99   50  116 1    
   100   51  117 1    
   101   51  118 1    
   102   51  119 1    
   103   52   53 2    
   104   52   54 am   BACKBONE|DICT|INTERRES
   105   54   55 1    
   106   54  120 1    
   107   55   56 1    
   108   55   57 1    
   109   55  121 1    
   110   56  122 1    
   111   56  123 1    
   112   56  124 1    
   113   57   58 2    
   114   57   59 am   BACKBONE|DICT|INTERRES
   115   59   60 1    
   116   59  125 1    
   117   60   61 1    
   118   60   62 1    
   119   60  126 1    
   120   61  127 1    
   121   61  128 1    
   122   61  129 1    
   123   62   63 2    
   124   62   64 am   BACKBONE|DICT|INTERRES
   125   64   65 1    
   126   64  130 1    
   127   65   66 1    
   128   65   69 1    
   129   65  131 1    
   130   66   67 am   BACKBONE|DICT|INTERRES
   131   66   68 2    
   132   67  132 1    
   133   67  133 1    
   134   69   70 1    
   135   69  134 1    
   136   69  135 1    
   137   70   71 1    
   138   71  136 1    
   139   71  137 1    
@<TRIPOS>SUBSTRUCTURE
     1 UNK         1 GROUP             0       ****    0 ROOT    
