@<TRIPOS>MOLECULE
3R136
137   139    1
SMALL
USER_CHARGES


@<TRIPOS>ATOM
      1 CA         35.4113   25.0850    1.2022 C.3       0 UNK        -0.1979 
      2 C          33.9515   25.3312    0.8538 C.2       0 UNK         0.4864 
      3 O          33.4747   26.4574    0.9897 O.2       0 UNK        -0.5359 
      4 N          33.2406   24.2939    0.3880 N.am      1 UNK        -0.4318 
      5 CA         31.8276   24.3205   -0.0170 C.3       1 UNK         0.0824 
      6 C6         31.2431   22.8821   -0.0400 C.3       12 UNK        -0.0944 
      7 S7         29.4198   22.8449    0.0826 S.3       12 UNK        -0.2672 
      8 C8         29.1380   21.7757    1.5313 C.3       12 UNK         0.0333 
      9 C9         28.9966   22.5692    2.8241 C.ar      12 UNK        -0.0807 
     10 C10        30.1042   23.1999    3.3963 C.ar      12 UNK        -0.0894 
     11 C11        29.9844   23.9006    4.6010 C.ar      12 UNK        -0.0804 
     12 C12        28.7424   23.9578    5.2436 C.ar      12 UNK        -0.0824 
     13 C13        27.6309   23.3078    4.6959 C.ar      12 UNK        -0.0762 
     14 C14        27.7634   22.6276    3.4805 C.ar      12 UNK        -0.0782 
     15 C15        26.3084   23.2578    5.4520 C.3       12 UNK         0.0230 
     16 S16        24.9374   24.0155    4.5232 S.3       12 UNK        -0.2608 
     17 C17        25.0221   25.7587    5.0546 C.3       12 UNK        -0.0989 
     18 CA         25.8393   26.6567    4.0953 C.3       5 UNK         0.0716 
     19 N          25.4009   26.5273    2.6995 N.am      5 UNK        -0.4135 
     20 C          25.9175   27.1992    1.6633 C.2       4 UNK         0.5031 
     21 O          26.8382   28.0121    1.7733 O.2       4 UNK        -0.5229 
     22 CA         25.2681   26.9495    0.2878 C.3       4 UNK         0.0329 
     23 CB         23.8753   27.6001    0.2243 C.3       4 UNK        -0.2001 
     24 N          26.0813   27.4856   -0.8078 N.am      4 UNK        -0.4303 
     25 C          27.2785   27.0102   -1.1730 C.2       3 UNK         0.5044 
     26 O          27.7613   25.9649   -0.7315 O.2       3 UNK        -0.5152 
     27 CA         28.0831   27.8479   -2.1812 C.3       3 UNK         0.0319 
     28 CB         27.8775   29.3704   -2.0092 C.3       3 UNK        -0.2001 
     29 N          29.4935   27.5092   -2.0178 N.am      3 UNK        -0.4354 
     30 C          30.4757   27.7186   -2.8994 C.2       2 UNK         0.4964 
     31 O          30.3044   28.2395   -4.0023 O.2       2 UNK        -0.5047 
     32 CA         31.8980   27.2986   -2.4827 C.3       2 UNK         0.0288 
     33 CB         32.7467   28.5381   -2.1505 C.3       2 UNK        -0.2113 
     34 N          31.9423   26.3887   -1.3348 N.am      2 UNK        -0.4145 
     35 C          31.6358   25.0857   -1.3528 C.2       1 UNK         0.5006 
     36 O          31.2643   24.4967   -2.3701 O.2       1 UNK        -0.5103 
     37 C          25.7807   28.1254    4.5699 C.2       5 UNK         0.5055 
     38 O          24.7865   28.8060    4.3074 O.2       5 UNK        -0.5220 
     39 N          26.8571   28.5887    5.2195 N.am      6 UNK        -0.4450 
     40 CA         27.1257   29.9599    5.6846 C.3       6 UNK         0.0367 
     41 CB         26.0301   30.4756    6.6393 C.3       6 UNK        -0.1929 
     42 C          27.4190   30.9791    4.5638 C.2       6 UNK         0.5070 
     43 O          28.1914   31.9076    4.8027 O.2       6 UNK        -0.5237 
     44 N          26.8485   30.7937    3.3645 N.am      7 UNK        -0.4739 
     45 CA         27.1904   31.5541    2.1560 C.3       7 UNK         0.0276 
     46 CB         26.1063   31.3502    1.0852 C.3       7 UNK        -0.1927 
     47 C          28.5782   31.1688    1.6138 C.2       7 UNK         0.5013 
     48 O          29.2915   32.0279    1.0933 O.2       7 UNK        -0.5193 
     49 N          28.9436   29.8898    1.7748 N.am      8 UNK        -0.4253 
     50 CA         30.2636   29.3111    1.5355 C.3       8 UNK         0.0242 
     51 CB         30.1382   27.7790    1.6150 C.3       8 UNK        -0.2000 
     52 C          31.3026   29.8501    2.5374 C.2       8 UNK         0.4948 
     53 O          31.6884   29.1459    3.4710 O.2       8 UNK        -0.5275 
     54 N          31.7313   31.1031    2.3333 N.am      9 UNK        -0.4246 
     55 CA         32.6492   31.8504    3.2020 C.3       9 UNK         0.0261 
     56 CB         32.8635   33.2569    2.6210 C.3       9 UNK        -0.1959 
     57 C          34.0018   31.1607    3.4563 C.2       9 UNK         0.5033 
     58 O          34.5761   31.3437    4.5304 O.2       9 UNK        -0.5390 
     59 N          34.4593   30.3451    2.4959 N.am      10 UNK        -0.4215 
     60 CA         35.6618   29.5140    2.5914 C.3       10 UNK         0.0240 
     61 CB         35.9949   28.9425    1.2031 C.3       10 UNK        -0.1982 
     62 C          35.5936   28.4008    3.6592 C.2       10 UNK         0.4970 
     63 O          36.6492   27.8789    4.0214 O.2       10 UNK        -0.4916 
     64 N          34.3962   28.0766    4.1668 N.am      11 UNK        -0.4279 
     65 CA         34.1843   27.1991    5.3277 C.3       11 UNK         0.1003 
     66 C          33.3453   27.8690    6.4544 C.2       11 UNK         0.5709 
     67 N          33.2017   29.1900    6.4737 N.am      11 UNK        -0.7358 
     68 O          32.8501   27.1910    7.3520 O.2       11 UNK        -0.4999 
     69 C69        33.7063   25.7800    4.9191 C.3       12 UNK        -0.0954 
     70 S70        32.0528   25.7098    4.1465 S.3       12 UNK        -0.2268 
     71 C71        31.2185   24.5199    5.2432 C.3       12 UNK         0.0203 
     72 H72        35.6407   24.0215    1.2649 H         1 UNK         0.0888 
     73 H73        36.0554   25.5325    0.4459 H         1 UNK         0.0888 
     74 H74        35.6515   25.5406    2.1620 H         1 UNK         0.0888 
     75 H75        33.7056   23.4059    0.2648 H         1 UNK         0.3017 
     76 H76        31.2881   24.8806    0.7508 H         1 UNK         0.0873 
     77 H77        31.5495   22.3406   -0.9369 H         1 UNK         0.0745 
     78 H78        31.6543   22.3084    0.7910 H         1 UNK         0.0745 
     79 H79        28.2318   21.1968    1.3468 H         1 UNK         0.0705 
     80 H80        29.9394   21.0425    1.6303 H         1 UNK         0.0705 
     81 H81        31.0679   23.1395    2.9110 H         1 UNK         0.1334 
     82 H82        28.6520   24.4706    6.1915 H         1 UNK         0.1417 
     83 H83        26.9054   22.1193    3.0614 H         1 UNK         0.1562 
     84 H84        26.3958   23.7179    6.4372 H         1 UNK         0.0748 
     85 H85        26.0590   22.2115    5.6343 H         1 UNK         0.0748 
     86 H86        25.4264   25.8107    6.0672 H         1 UNK         0.0940 
     87 H87        23.9948   26.1224    5.1281 H         1 UNK         0.0940 
     88 H88        26.8798   26.3257    4.1225 H         1 UNK         0.0703 
     89 H89        24.6396   25.8848    2.5395 H         1 UNK         0.3081 
     90 H90        25.1668   25.8713    0.1466 H         1 UNK         0.0719 
     91 H91        23.9263   28.6782    0.3837 H         1 UNK         0.0809 
     92 H92        23.3986   27.4253   -0.7405 H         1 UNK         0.0809 
     93 H93        23.2113   27.1915    0.9872 H         1 UNK         0.0809 
     94 H94        25.7756   28.3610   -1.2045 H         1 UNK         0.2990 
     95 H95        27.7644   27.5503   -3.1820 H         1 UNK         0.0690 
     96 H96        28.5189   29.9399   -2.6817 H         1 UNK         0.0788 
     97 H97        28.1019   29.6903   -0.9917 H         1 UNK         0.0788 
     98 H98        26.8527   29.6669   -2.2334 H         1 UNK         0.0788 
     99 H99        29.6968   26.9856   -1.1766 H         1 UNK         0.2993 
    100 H100       32.3486   26.7911   -3.3384 H         1 UNK         0.0949 
    101 H101       33.7769   28.2637   -1.9214 H         1 UNK         0.0767 
    102 H102       32.7766   29.2304   -2.9931 H         1 UNK         0.0767 
    103 H103       32.3472   29.0825   -1.2941 H         1 UNK         0.0767 
    104 H104       32.3472   26.7478   -0.4721 H         1 UNK         0.3013 
    105 H105       27.6282   27.9485    5.3526 H         1 UNK         0.3121 
    106 H106       28.0458   29.8846    6.2667 H         1 UNK         0.0774 
    107 H107       26.3250   31.4257    7.0866 H         1 UNK         0.0815 
    108 H108       25.0836   30.6454    6.1257 H         1 UNK         0.0815 
    109 H109       25.8507   29.7754    7.4549 H         1 UNK         0.0815 
    110 H110       26.2045   30.0180    3.2587 H         1 UNK         0.2987 
    111 H111       27.2198   32.6150    2.4142 H         1 UNK         0.0949 
    112 H112       26.0324   30.3092    0.7721 H         1 UNK         0.0806 
    113 H113       25.1267   31.6612    1.4483 H         1 UNK         0.0806 
    114 H114       26.3250   31.9412    0.1948 H         1 UNK         0.0806 
    115 H115       28.2311   29.2432    2.1051 H         1 UNK         0.3010 
    116 H116       30.5853   29.5796    0.5275 H         1 UNK         0.0829 
    117 H117       29.4518   27.3920    0.8654 H         1 UNK         0.0813 
    118 H118       31.1026   27.2991    1.4598 H         1 UNK         0.0813 
    119 H119       29.7729   27.4542    2.5904 H         1 UNK         0.0813 
    120 H120       31.2701   31.6305    1.5993 H         1 UNK         0.3038 
    121 H121       32.1556   31.9530    4.1707 H         1 UNK         0.0769 
    122 H122       31.9213   33.7991    2.5363 H         1 UNK         0.0811 
    123 H123       33.3203   33.2196    1.6312 H         1 UNK         0.0811 
    124 H124       33.5193   33.8488    3.2614 H         1 UNK         0.0811 
    125 H125       33.9038   30.2438    1.6593 H         1 UNK         0.3204 
    126 H126       36.4847   30.1688    2.8857 H         1 UNK         0.0748 
    127 H127       36.2287   29.7377    0.4950 H         1 UNK         0.0771 
    128 H128       36.8631   28.2833    1.2446 H         1 UNK         0.0771 
    129 H129       35.1669   28.3664    0.7931 H         1 UNK         0.0771 
    130 H130       33.5522   28.5181    3.8114 H         1 UNK         0.2980 
    131 H131       35.1477   27.0511    5.8182 H         1 UNK         0.0545 
    132 H132       33.6409   29.7705    5.7724 H         1 UNK         0.3459 
    133 H133       32.6653   29.6128    7.2137 H         1 UNK         0.3459 
    134 H134       33.7340   25.1236    5.7900 H         1 UNK         0.0616 
    135 H135       34.4162   25.3471    4.2145 H         1 UNK         0.0616 
    136 H136       31.9064   23.7116    5.4947 H         1 UNK         0.0634 
    137 H137       30.9689   25.0220    6.1793 H         1 UNK         0.0634 
@<TRIPOS>BOND
     1    1    2 1    
     2    1   72 1    
     3    1   73 1    
     4    1   74 1    
     5    2    3 2    
     6    2    4 am   BACKBONE|DICT|INTERRES
     7    4    5 1    
     8    4   75 1    
     9    5    6 1    
    10    5   35 1    
    11    5   76 1    
    12    6    7 1    
    13    6   77 1    
    14    6   78 1    
    15    7    8 1    
    16    8    9 1    
    17    8   79 1    
    18    8   80 1    
    19    9   10 ar   
    20    9   14 ar   
    21   10   11 ar   
    22   10   81 1    
    23   11   12 ar   
    24   11   71 1    
    25   12   13 ar   
    26   12   82 1    
    27   13   14 ar   
    28   13   15 1    
    29   14   83 1    
    30   15   16 1    
    31   15   84 1    
    32   15   85 1    
    33   16   17 1    
    34   17   18 1    
    35   17   86 1    
    36   17   87 1    
    37   18   19 1    
    38   18   37 1    
    39   18   88 1    
    40   19   20 am   BACKBONE|DICT|INTERRES
    41   19   89 1    
    42   20   21 2    
    43   20   22 1    
    44   22   23 1    
    45   22   24 1    
    46   22   90 1    
    47   23   91 1    
    48   23   92 1    
    49   23   93 1    
    50   24   25 am   BACKBONE|DICT|INTERRES
    51   24   94 1    
    52   25   26 2    
    53   25   27 1    
    54   27   28 1    
    55   27   29 1    
    56   27   95 1    
    57   28   96 1    
    58   28   97 1    
    59   28   98 1    
    60   29   30 am   BACKBONE|DICT|INTERRES
    61   29   99 1    
    62   30   31 2    
    63   30   32 1    
    64   32   33 1    
    65   32   34 1    
    66   32  100 1    
    67   33  101 1    
    68   33  102 1    
    69   33  103 1    
    70   34   35 am   BACKBONE|DICT|INTERRES
    71   34  104 1    
    72   35   36 2    
    73   37   38 2    
    74   37   39 am   BACKBONE|DICT|INTERRES
    75   39   40 1    
    76   39  105 1    
    77   40   41 1    
    78   40   42 1    
    79   40  106 1    
    80   41  107 1    
    81   41  108 1    
    82   41  109 1    
    83   42   43 2    
    84   42   44 am   BACKBONE|DICT|INTERRES
    85   44   45 1    
    86   44  110 1    
    87   45   46 1    
    88   45   47 1    
    89   45  111 1    
    90   46  112 1    
    91   46  113 1    
    92   46  114 1    
    93   47   48 2    
    94   47   49 am   BACKBONE|DICT|INTERRES
    95   49   50 1    
    96   49  115 1    
    97   50   51 1    
    98   50   52 1    
    99   50  116 1    
   100   51  117 1    
   101   51  118 1    
   102   51  119 1    
   103   52   53 2    
   104   52   54 am   BACKBONE|DICT|INTERRES
   105   54   55 1    
   106   54  120 1    
   107   55   56 1    
   108   55   57 1    
   109   55  121 1    
   110   56  122 1    
   111   56  123 1    
   112   56  124 1    
   113   57   58 2    
   114   57   59 am   BACKBONE|DICT|INTERRES
   115   59   60 1    
   116   59  125 1    
   117   60   61 1    
   118   60   62 1    
   119   60  126 1    
   120   61  127 1    
   121   61  128 1    
   122   61  129 1    
   123   62   63 2    
   124   62   64 am   BACKBONE|DICT|INTERRES
   125   64   65 1    
   126   64  130 1    
   127   65   66 1    
   128   65   69 1    
   129   65  131 1    
   130   66   67 am   BACKBONE|DICT|INTERRES
   131   66   68 2    
   132   67  132 1    
   133   67  133 1    
   134   69   70 1    
   135   69  134 1    
   136   69  135 1    
   137   70   71 1    
   138   71  136 1    
   139   71  137 1    
@<TRIPOS>SUBSTRUCTURE
     1 UNK         1 GROUP             0       ****    0 ROOT    
