@<TRIPOS>MOLECULE
3R136
137   139    1
SMALL
USER_CHARGES


@<TRIPOS>ATOM
      1 CA         26.1117   20.9920    0.8385 C.3       0 UNK        -0.1979 
      2 C          27.0067   21.1315   -0.3840 C.2       0 UNK         0.4864 
      3 O          26.7779   20.4581   -1.3897 O.2       0 UNK        -0.5359 
      4 N          28.0276   21.9934   -0.2996 N.am      1 UNK        -0.4318 
      5 CA         28.9278   22.3393   -1.4055 C.3       1 UNK         0.0824 
      6 C6         30.3355   22.7615   -0.9126 C.3       12 UNK        -0.0944 
      7 S7         30.3271   23.9968    0.4330 S.3       12 UNK        -0.2672 
      8 C8         31.2598   23.1094    1.7156 C.3       12 UNK         0.0333 
      9 C9         31.4429   23.9759    2.9497 C.ar      12 UNK        -0.0807 
     10 C10        32.5610   24.8063    3.0690 C.ar      12 UNK        -0.0894 
     11 C11        32.7398   25.5970    4.2082 C.ar      12 UNK        -0.0804 
     12 C12        31.7740   25.5715    5.2193 C.ar      12 UNK        -0.0824 
     13 C13        30.6414   24.7580    5.1045 C.ar      12 UNK        -0.0762 
     14 C14        30.4965   23.9430    3.9767 C.ar      12 UNK        -0.0782 
     15 C15        29.5903   24.7647    6.2120 C.3       12 UNK         0.0230 
     16 S16        27.8666   24.8222    5.6051 S.3       12 UNK        -0.2608 
     17 C17        27.8923   26.2499    4.4671 C.3       12 UNK        -0.0989 
     18 CA         27.5663   25.8194    3.0149 C.3       5 UNK         0.0716 
     19 N          26.1881   25.3419    2.8886 N.am      5 UNK        -0.4135 
     20 C          25.7017   24.7161    1.8123 C.2       4 UNK         0.5031 
     21 O          26.4042   24.3499    0.8655 O.2       4 UNK        -0.5229 
     22 CA         24.1822   24.4979    1.7373 C.3       4 UNK         0.0329 
     23 CB         23.3662   25.1889    2.8508 C.3       4 UNK        -0.2001 
     24 N          23.7819   24.9995    0.4318 N.am      4 UNK        -0.4303 
     25 C          22.7689   24.5783   -0.3314 C.2       3 UNK         0.5044 
     26 O          21.9035   23.7842    0.0383 O.2       3 UNK        -0.5152 
     27 CA         22.7493   25.1261   -1.7745 C.3       3 UNK         0.0319 
     28 CB         21.8412   26.3623   -1.8722 C.3       3 UNK        -0.2001 
     29 N          24.0975   25.4711   -2.2504 N.am      3 UNK        -0.4354 
     30 C          25.0555   24.5645   -2.4963 C.2       2 UNK         0.4964 
     31 O          24.8335   23.3535   -2.5569 O.2       2 UNK        -0.5047 
     32 CA         26.5002   25.0732   -2.6505 C.3       2 UNK         0.0288 
     33 CB         26.7136   26.5251   -2.1706 C.3       2 UNK        -0.2113 
     34 N          27.3591   24.1869   -1.8668 N.am      2 UNK        -0.4145 
     35 C          28.3052   23.3793   -2.3636 C.2       1 UNK         0.5006 
     36 O          28.6789   23.4071   -3.5384 O.2       1 UNK        -0.5103 
     37 C          27.8086   26.9865    2.0393 C.2       5 UNK         0.5055 
     38 O          26.9931   27.9115    1.9850 O.2       5 UNK        -0.5220 
     39 N          28.9324   26.9446    1.3138 N.am      6 UNK        -0.4450 
     40 CA         29.4002   28.0125    0.4290 C.3       6 UNK         0.0367 
     41 CB         30.3683   27.4173   -0.6105 C.3       6 UNK        -0.1929 
     42 C          30.0476   29.1348    1.2596 C.2       6 UNK         0.5070 
     43 O          31.2726   29.2563    1.2820 O.2       6 UNK        -0.5237 
     44 N          29.2041   29.8911    1.9747 N.am      7 UNK        -0.4739 
     45 CA         29.5799   30.9494    2.9139 C.3       7 UNK         0.0276 
     46 CB         28.3080   31.5496    3.5342 C.3       7 UNK        -0.1927 
     47 C          30.4457   32.0480    2.2725 C.2       7 UNK         0.5013 
     48 O          30.0934   32.5721    1.2128 O.2       7 UNK        -0.5193 
     49 N          31.5486   32.3746    2.9480 N.am      8 UNK        -0.4253 
     50 CA         32.5790   33.3326    2.5665 C.3       8 UNK         0.0242 
     51 CB         33.4007   32.7883    1.3797 C.3       8 UNK        -0.2000 
     52 C          33.4704   33.5384    3.7968 C.2       8 UNK         0.4948 
     53 O          33.3505   32.7821    4.7663 O.2       8 UNK        -0.5275 
     54 N          34.3839   34.5160    3.7318 N.am      9 UNK        -0.4246 
     55 CA         35.3309   34.8545    4.8053 C.3       9 UNK         0.0261 
     56 CB         36.1661   36.0731    4.3794 C.3       9 UNK        -0.1959 
     57 C          36.2531   33.6977    5.2435 C.2       9 UNK         0.5033 
     58 O          36.6897   33.6798    6.3950 O.2       9 UNK        -0.5390 
     59 N          36.5151   32.7497    4.3331 N.am      10 UNK        -0.4215 
     60 CA         37.2571   31.5163    4.6005 C.3       10 UNK         0.0240 
     61 CB         37.7133   30.9067    3.2644 C.3       10 UNK        -0.1982 
     62 C          36.4576   30.4786    5.4127 C.2       10 UNK         0.4970 
     63 O          37.0781   29.6579    6.0903 O.2       10 UNK        -0.4916 
     64 N          35.1212   30.5139    5.3219 N.am      11 UNK        -0.4279 
     65 CA         34.2076   29.5870    6.0095 C.3       11 UNK         0.1003 
     66 C          33.5638   30.2116    7.2755 C.2       11 UNK         0.5709 
     67 N          33.3369   31.5183    7.3233 N.am      11 UNK        -0.7358 
     68 O          33.2766   29.4987    8.2339 O.2       11 UNK        -0.4999 
     69 C69        33.1139   29.0350    5.0561 C.3       12 UNK        -0.0954 
     70 S70        33.8134   28.1076    3.6496 S.3       12 UNK        -0.2268 
     71 C71        33.9984   26.4412    4.3587 C.3       12 UNK         0.0203 
     72 H72        25.1108   21.3565    0.6083 H         1 UNK         0.0888 
     73 H73        26.0366   19.9460    1.1344 H         1 UNK         0.0888 
     74 H74        26.4930   21.5580    1.6883 H         1 UNK         0.0888 
     75 H75        28.1465   22.5461    0.5388 H         1 UNK         0.3017 
     76 H76        29.0707   21.4399   -2.0090 H         1 UNK         0.0873 
     77 H77        30.9379   23.1495   -1.7364 H         1 UNK         0.0745 
     78 H78        30.8641   21.8707   -0.5700 H         1 UNK         0.0745 
     79 H79        30.7369   22.1872    1.9744 H         1 UNK         0.0705 
     80 H80        32.2328   22.8144    1.3190 H         1 UNK         0.0705 
     81 H81        33.2997   24.8285    2.2792 H         1 UNK         0.1334 
     82 H82        31.9093   26.1802    6.1026 H         1 UNK         0.1417 
     83 H83        29.6341   23.2962    3.8888 H         1 UNK         0.1562 
     84 H84        29.7429   25.6156    6.8779 H         1 UNK         0.0748 
     85 H85        29.7179   23.8698    6.8223 H         1 UNK         0.0748 
     86 H86        28.8677   26.7379    4.5181 H         1 UNK         0.0940 
     87 H87        27.1736   26.9915    4.8217 H         1 UNK         0.0940 
     88 H88        28.2287   24.9994    2.7323 H         1 UNK         0.0703 
     89 H89        25.5484   25.6315    3.6127 H         1 UNK         0.3081 
     90 H90        24.0068   23.4212    1.7792 H         1 UNK         0.0719 
     91 H91        23.5191   26.2691    2.8586 H         1 UNK         0.0809 
     92 H92        22.2986   25.0118    2.7181 H         1 UNK         0.0809 
     93 H93        23.6285   24.8011    3.8359 H         1 UNK         0.0809 
     94 H94        24.4580   25.6157    0.0038 H         1 UNK         0.2990 
     95 H95        22.3413   24.3468   -2.4219 H         1 UNK         0.0690 
     96 H96        21.7743   26.7255   -2.8980 H         1 UNK         0.0788 
     97 H97        22.2011   27.1809   -1.2475 H         1 UNK         0.0788 
     98 H98        20.8270   26.1261   -1.5469 H         1 UNK         0.0788 
     99 H99        24.3448   26.4505   -2.2559 H         1 UNK         0.2993 
    100 H100       26.7453   25.0161   -3.7130 H         1 UNK         0.0949 
    101 H101       26.4649   26.6491   -1.1154 H         1 UNK         0.0767 
    102 H102       27.7543   26.8221   -2.2965 H         1 UNK         0.0767 
    103 H103       26.1175   27.2327   -2.7479 H         1 UNK         0.0767 
    104 H104       27.0939   24.0778   -0.8902 H         1 UNK         0.3013 
    105 H105       29.5517   26.1503    1.4132 H         1 UNK         0.3121 
    106 H106       28.5487   28.4346   -0.1095 H         1 UNK         0.0774 
    107 H107       31.2480   26.9767   -0.1392 H         1 UNK         0.0815 
    108 H108       30.7183   28.1858   -1.3006 H         1 UNK         0.0815 
    109 H109       29.8875   26.6407   -1.2051 H         1 UNK         0.0815 
    110 H110       28.2179   29.6636    1.9172 H         1 UNK         0.2987 
    111 H111       30.1544   30.4717    3.7106 H         1 UNK         0.0949 
    112 H112       27.7220   30.7910    4.0538 H         1 UNK         0.0806 
    113 H113       28.5558   32.3224    4.2632 H         1 UNK         0.0806 
    114 H114       27.6697   32.0078    2.7775 H         1 UNK         0.0806 
    115 H115       31.7403   31.9419    3.8442 H         1 UNK         0.3010 
    116 H116       32.1095   34.2825    2.3032 H         1 UNK         0.0829 
    117 H117       34.1900   33.4816    1.0878 H         1 UNK         0.0813 
    118 H118       33.8720   31.8345    1.6221 H         1 UNK         0.0813 
    119 H119       32.7762   32.6320    0.5001 H         1 UNK         0.0813 
    120 H120       34.4237   35.0880    2.8998 H         1 UNK         0.3038 
    121 H121       34.7395   35.1362    5.6791 H         1 UNK         0.0769 
    122 H122       36.7565   35.8663    3.4859 H         1 UNK         0.0811 
    123 H123       36.8611   36.3653    5.1682 H         1 UNK         0.0811 
    124 H124       35.5338   36.9370    4.1735 H         1 UNK         0.0811 
    125 H125       36.1314   32.8613    3.4064 H         1 UNK         0.3204 
    126 H126       38.1472   31.7713    5.1799 H         1 UNK         0.0748 
    127 H127       38.3003   30.0018    3.4290 H         1 UNK         0.0771 
    128 H128       36.8657   30.6338    2.6339 H         1 UNK         0.0771 
    129 H129       38.3412   31.6000    2.7044 H         1 UNK         0.0771 
    130 H130       34.6757   31.2684    4.8149 H         1 UNK         0.2980 
    131 H131       34.7769   28.7264    6.3650 H         1 UNK         0.0545 
    132 H132       33.4850   32.0931    6.4991 H         1 UNK         0.3459 
    133 H133       32.9274   31.9194    8.1512 H         1 UNK         0.3459 
    134 H134       32.5176   29.8540    4.6511 H         1 UNK         0.0616 
    135 H135       32.4157   28.3910    5.5913 H         1 UNK         0.0616 
    136 H136       34.8301   25.9462    3.8551 H         1 UNK         0.0634 
    137 H137       34.2865   26.5124    5.4083 H         1 UNK         0.0634 
@<TRIPOS>BOND
     1    1    2 1    
     2    1   72 1    
     3    1   73 1    
     4    1   74 1    
     5    2    3 2    
     6    2    4 am   BACKBONE|DICT|INTERRES
     7    4    5 1    
     8    4   75 1    
     9    5    6 1    
    10    5   35 1    
    11    5   76 1    
    12    6    7 1    
    13    6   77 1    
    14    6   78 1    
    15    7    8 1    
    16    8    9 1    
    17    8   79 1    
    18    8   80 1    
    19    9   10 ar   
    20    9   14 ar   
    21   10   11 ar   
    22   10   81 1    
    23   11   12 ar   
    24   11   71 1    
    25   12   13 ar   
    26   12   82 1    
    27   13   14 ar   
    28   13   15 1    
    29   14   83 1    
    30   15   16 1    
    31   15   84 1    
    32   15   85 1    
    33   16   17 1    
    34   17   18 1    
    35   17   86 1    
    36   17   87 1    
    37   18   19 1    
    38   18   37 1    
    39   18   88 1    
    40   19   20 am   BACKBONE|DICT|INTERRES
    41   19   89 1    
    42   20   21 2    
    43   20   22 1    
    44   22   23 1    
    45   22   24 1    
    46   22   90 1    
    47   23   91 1    
    48   23   92 1    
    49   23   93 1    
    50   24   25 am   BACKBONE|DICT|INTERRES
    51   24   94 1    
    52   25   26 2    
    53   25   27 1    
    54   27   28 1    
    55   27   29 1    
    56   27   95 1    
    57   28   96 1    
    58   28   97 1    
    59   28   98 1    
    60   29   30 am   BACKBONE|DICT|INTERRES
    61   29   99 1    
    62   30   31 2    
    63   30   32 1    
    64   32   33 1    
    65   32   34 1    
    66   32  100 1    
    67   33  101 1    
    68   33  102 1    
    69   33  103 1    
    70   34   35 am   BACKBONE|DICT|INTERRES
    71   34  104 1    
    72   35   36 2    
    73   37   38 2    
    74   37   39 am   BACKBONE|DICT|INTERRES
    75   39   40 1    
    76   39  105 1    
    77   40   41 1    
    78   40   42 1    
    79   40  106 1    
    80   41  107 1    
    81   41  108 1    
    82   41  109 1    
    83   42   43 2    
    84   42   44 am   BACKBONE|DICT|INTERRES
    85   44   45 1    
    86   44  110 1    
    87   45   46 1    
    88   45   47 1    
    89   45  111 1    
    90   46  112 1    
    91   46  113 1    
    92   46  114 1    
    93   47   48 2    
    94   47   49 am   BACKBONE|DICT|INTERRES
    95   49   50 1    
    96   49  115 1    
    97   50   51 1    
    98   50   52 1    
    99   50  116 1    
   100   51  117 1    
   101   51  118 1    
   102   51  119 1    
   103   52   53 2    
   104   52   54 am   BACKBONE|DICT|INTERRES
   105   54   55 1    
   106   54  120 1    
   107   55   56 1    
   108   55   57 1    
   109   55  121 1    
   110   56  122 1    
   111   56  123 1    
   112   56  124 1    
   113   57   58 2    
   114   57   59 am   BACKBONE|DICT|INTERRES
   115   59   60 1    
   116   59  125 1    
   117   60   61 1    
   118   60   62 1    
   119   60  126 1    
   120   61  127 1    
   121   61  128 1    
   122   61  129 1    
   123   62   63 2    
   124   62   64 am   BACKBONE|DICT|INTERRES
   125   64   65 1    
   126   64  130 1    
   127   65   66 1    
   128   65   69 1    
   129   65  131 1    
   130   66   67 am   BACKBONE|DICT|INTERRES
   131   66   68 2    
   132   67  132 1    
   133   67  133 1    
   134   69   70 1    
   135   69  134 1    
   136   69  135 1    
   137   70   71 1    
   138   71  136 1    
   139   71  137 1    
@<TRIPOS>SUBSTRUCTURE
     1 UNK         1 GROUP             0       ****    0 ROOT    
