@<TRIPOS>MOLECULE
3R136
137   139    1
SMALL
USER_CHARGES


@<TRIPOS>ATOM
      1 CA         23.2043   24.3988    3.3507 C.3       0 UNK        -0.1979 
      2 C          24.4173   23.4891    3.2216 C.2       0 UNK         0.4864 
      3 O          24.2610   22.3021    2.9335 O.2       0 UNK        -0.5359 
      4 N          25.6200   24.0395    3.4405 N.am      1 UNK        -0.4318 
      5 CA         26.9119   23.3506    3.3321 C.3       1 UNK         0.0824 
      6 C6         28.0725   24.2526    3.8259 C.3       12 UNK        -0.0944 
      7 S7         29.5399   23.3027    4.3431 S.3       12 UNK        -0.2672 
      8 C8         30.6238   23.4504    2.8859 C.3       12 UNK         0.0333 
      9 C9         31.2603   24.8280    2.7643 C.ar      12 UNK        -0.0807 
     10 C10        32.3103   25.1871    3.6146 C.ar      12 UNK        -0.0894 
     11 C11        32.9381   26.4286    3.4822 C.ar      12 UNK        -0.0804 
     12 C12        32.5222   27.3055    2.4775 C.ar      12 UNK        -0.0824 
     13 C13        31.4527   26.9738    1.6420 C.ar      12 UNK        -0.0762 
     14 C14        30.8254   25.7316    1.7881 C.ar      12 UNK        -0.0782 
     15 C15        30.9653   27.9724    0.6031 C.3       12 UNK         0.0230 
     16 S16        30.0636   29.3341    1.4072 S.3       12 UNK        -0.2608 
     17 C17        28.8673   29.8135    0.1106 C.3       12 UNK        -0.0989 
     18 CA         27.6632   28.8532   -0.1847 C.3       5 UNK         0.0716 
     19 N          27.8719   28.0240   -1.3688 N.am      5 UNK        -0.4135 
     20 C          27.9678   28.4744   -2.6261 C.2       4 UNK         0.5031 
     21 O          27.8835   29.6630   -2.9384 O.2       4 UNK        -0.5229 
     22 CA         28.2061   27.4281   -3.7269 C.3       4 UNK         0.0329 
     23 CB         29.6801   26.9889   -3.7435 C.3       4 UNK        -0.2001 
     24 N          27.3477   26.2511   -3.5947 N.am      4 UNK        -0.4303 
     25 C          26.0187   26.2378   -3.7814 C.2       3 UNK         0.5044 
     26 O          25.3623   27.2215   -4.1244 O.2       3 UNK        -0.5152 
     27 CA         25.2984   24.8946   -3.5487 C.3       3 UNK         0.0319 
     28 CB         25.1006   24.1512   -4.8797 C.3       3 UNK        -0.2001 
     29 N          26.0106   24.0236   -2.6074 N.am      3 UNK        -0.4354 
     30 C          26.1249   24.2780   -1.2978 C.2       2 UNK         0.4964 
     31 O          25.5473   25.2079   -0.7290 O.2       2 UNK        -0.5047 
     32 CA         27.0824   23.3730   -0.5149 C.3       2 UNK         0.0288 
     33 CB         28.5438   23.5926   -0.9560 C.3       2 UNK        -0.2113 
     34 N          26.9543   23.6778    0.9042 N.am      2 UNK        -0.4145 
     35 C          27.1755   22.8210    1.9066 C.2       1 UNK         0.5006 
     36 O          27.5556   21.6595    1.7447 O.2       1 UNK        -0.5103 
     37 C          27.2739   27.9192    0.9767 C.2       5 UNK         0.5055 
     38 O          27.6392   26.7397    0.9678 O.2       5 UNK        -0.5220 
     39 N          26.5891   28.4746    1.9830 N.am      6 UNK        -0.4450 
     40 CA         26.1774   27.7751    3.2024 C.3       6 UNK         0.0367 
     41 CB         24.7584   28.2362    3.5861 C.3       6 UNK        -0.1929 
     42 C          27.1951   27.9739    4.3443 C.2       6 UNK         0.5070 
     43 O          26.7942   28.2477    5.4756 O.2       6 UNK        -0.5237 
     44 N          28.4924   27.8567    4.0207 N.am      7 UNK        -0.4739 
     45 CA         29.6546   28.1074    4.8898 C.3       7 UNK         0.0276 
     46 CB         29.7667   27.0375    5.9950 C.3       7 UNK        -0.1927 
     47 C          29.6997   29.5510    5.4332 C.2       7 UNK         0.5013 
     48 O          30.0669   29.7736    6.5883 O.2       7 UNK        -0.5193 
     49 N          29.3014   30.5068    4.5832 N.am      8 UNK        -0.4253 
     50 CA         29.1847   31.9300    4.9072 C.3       8 UNK         0.0242 
     51 CB         28.2422   32.5895    3.8865 C.3       8 UNK        -0.2000 
     52 C          30.5329   32.6711    4.9475 C.2       8 UNK         0.4948 
     53 O          30.6099   33.7395    5.5560 O.2       8 UNK        -0.5275 
     54 N          31.5580   32.1148    4.2949 N.am      9 UNK        -0.4246 
     55 CA         32.9075   32.6578    4.1773 C.3       9 UNK         0.0261 
     56 CB         32.9264   33.7828    3.1212 C.3       9 UNK        -0.1959 
     57 C          33.8551   31.5117    3.7976 C.2       9 UNK         0.5033 
     58 O          33.3873   30.3944    3.5664 O.2       9 UNK        -0.5390 
     59 N          35.1562   31.8224    3.7133 N.am      10 UNK        -0.4215 
     60 CA         36.2629   30.9299    3.3405 C.3       10 UNK         0.0240 
     61 CB         36.0567   30.3550    1.9183 C.3       10 UNK        -0.1982 
     62 C          36.5513   29.8436    4.3982 C.2       10 UNK         0.4970 
     63 O          36.1004   29.9568    5.5404 O.2       10 UNK        -0.4916 
     64 N          37.3492   28.8417    4.0036 N.am      11 UNK        -0.4279 
     65 CA         37.8291   27.7153    4.8275 C.3       11 UNK         0.1003 
     66 C          38.8182   28.1139    5.9670 C.2       11 UNK         0.5709 
     67 N          39.4196   29.2976    5.9373 N.am      11 UNK        -0.7358 
     68 O          39.0761   27.3285    6.8767 O.2       11 UNK        -0.4999 
     69 C69        36.6901   26.7774    5.3241 C.3       12 UNK        -0.0954 
     70 S70        35.6446   26.1374    3.9718 S.3       12 UNK        -0.2268 
     71 C71        34.0377   26.8371    4.4479 C.3       12 UNK         0.0203 
     72 H72        22.6909   24.4754    2.3925 H         1 UNK         0.0888 
     73 H73        22.5052   23.9912    4.0804 H         1 UNK         0.0888 
     74 H74        23.4772   25.4040    3.6698 H         1 UNK         0.0888 
     75 H75        25.6643   25.0098    3.7080 H         1 UNK         0.3017 
     76 H76        26.8486   22.4821    3.9918 H         1 UNK         0.0873 
     77 H77        28.3447   25.0057    3.0848 H         1 UNK         0.0745 
     78 H78        27.7537   24.8120    4.7068 H         1 UNK         0.0745 
     79 H79        30.0672   23.1995    1.9828 H         1 UNK         0.0705 
     80 H80        31.4137   22.7023    2.9665 H         1 UNK         0.0705 
     81 H81        32.6381   24.4993    4.3822 H         1 UNK         0.1334 
     82 H82        33.0052   28.2653    2.3662 H         1 UNK         0.1417 
     83 H83        29.9994   25.4677    1.1421 H         1 UNK         0.1562 
     84 H84        30.3243   27.4737   -0.1242 H         1 UNK         0.0748 
     85 H85        31.8107   28.3771    0.0451 H         1 UNK         0.0748 
     86 H86        29.4291   30.0456   -0.7949 H         1 UNK         0.0940 
     87 H87        28.4603   30.7751    0.4270 H         1 UNK         0.0940 
     88 H88        26.7848   29.4659   -0.3996 H         1 UNK         0.0703 
     89 H89        27.8967   27.0319   -1.1713 H         1 UNK         0.3081 
     90 H90        27.9823   27.8996   -4.6864 H         1 UNK         0.0719 
     91 H91        29.9641   26.4754   -2.8240 H         1 UNK         0.0809 
     92 H92        29.8846   26.3188   -4.5788 H         1 UNK         0.0809 
     93 H93        30.3415   27.8496   -3.8530 H         1 UNK         0.0809 
     94 H94        27.7975   25.3858   -3.3376 H         1 UNK         0.2990 
     95 H95        24.3135   25.1171   -3.1320 H         1 UNK         0.0690 
     96 H96        24.5309   23.2322   -4.7403 H         1 UNK         0.0788 
     97 H97        26.0525   23.8906   -5.3442 H         1 UNK         0.0788 
     98 H98        24.5488   24.7670   -5.5915 H         1 UNK         0.0788 
     99 H99        26.4963   23.2290   -2.9997 H         1 UNK         0.2993 
    100 H100       26.7901   22.3358   -0.6935 H         1 UNK         0.0949 
    101 H101       29.2290   22.9712   -0.3795 H         1 UNK         0.0767 
    102 H102       28.6884   23.3325   -2.0049 H         1 UNK         0.0767 
    103 H103       28.8493   24.6317   -0.8287 H         1 UNK         0.0767 
    104 H104       26.6233   24.6178    1.0950 H         1 UNK         0.3013 
    105 H105       26.3628   29.4581    1.9345 H         1 UNK         0.3121 
    106 H106       26.1309   26.7046    3.0049 H         1 UNK         0.0774 
    107 H107       24.3927   27.7015    4.4638 H         1 UNK         0.0815 
    108 H108       24.7302   29.3011    3.8200 H         1 UNK         0.0815 
    109 H109       24.0495   28.0511    2.7788 H         1 UNK         0.0815 
    110 H110       28.7145   27.6344    3.0581 H         1 UNK         0.2987 
    111 H111       30.5365   28.0087    4.2582 H         1 UNK         0.0949 
    112 H112       28.9243   27.0745    6.6858 H         1 UNK         0.0806 
    113 H113       29.8125   26.0366    5.5687 H         1 UNK         0.0806 
    114 H114       30.6766   27.1743    6.5805 H         1 UNK         0.0806 
    115 H115       29.0460   30.2283    3.6463 H         1 UNK         0.3010 
    116 H116       28.7336   32.0203    5.8979 H         1 UNK         0.0829 
    117 H117       27.2550   32.1271    3.9008 H         1 UNK         0.0813 
    118 H118       28.1048   33.6486    4.1095 H         1 UNK         0.0813 
    119 H119       28.6338   32.5188    2.8708 H         1 UNK         0.0813 
    120 H120       31.4511   31.2001    3.8715 H         1 UNK         0.3038 
    121 H121       33.2206   33.0508    5.1468 H         1 UNK         0.0769 
    122 H122       32.6407   33.4106    2.1364 H         1 UNK         0.0811 
    123 H123       33.9169   34.2287    3.0278 H         1 UNK         0.0811 
    124 H124       32.2407   34.5886    3.3835 H         1 UNK         0.0811 
    125 H125       35.4313   32.7617    3.9648 H         1 UNK         0.3204 
    126 H126       37.1507   31.5633    3.3120 H         1 UNK         0.0748 
    127 H127       36.9761   29.9228    1.5226 H         1 UNK         0.0771 
    128 H128       35.2950   29.5742    1.9021 H         1 UNK         0.0771 
    129 H129       35.7491   31.1323    1.2185 H         1 UNK         0.0771 
    130 H130       37.6827   28.8458    3.0512 H         1 UNK         0.2980 
    131 H131       38.4429   27.1216    4.1495 H         1 UNK         0.0545 
    132 H132       39.2346   29.9487    5.1919 H         1 UNK         0.3459 
    133 H133       40.0656   29.5401    6.6719 H         1 UNK         0.3459 
    134 H134       37.1097   25.9083    5.8335 H         1 UNK         0.0616 
    135 H135       36.0735   27.2875    6.0657 H         1 UNK         0.0616 
    136 H136       34.1177   27.9241    4.4946 H         1 UNK         0.0634 
    137 H137       33.7814   26.5035    5.4546 H         1 UNK         0.0634 
@<TRIPOS>BOND
     1    1    2 1    
     2    1   72 1    
     3    1   73 1    
     4    1   74 1    
     5    2    3 2    
     6    2    4 am   BACKBONE|DICT|INTERRES
     7    4    5 1    
     8    4   75 1    
     9    5    6 1    
    10    5   35 1    
    11    5   76 1    
    12    6    7 1    
    13    6   77 1    
    14    6   78 1    
    15    7    8 1    
    16    8    9 1    
    17    8   79 1    
    18    8   80 1    
    19    9   10 ar   
    20    9   14 ar   
    21   10   11 ar   
    22   10   81 1    
    23   11   12 ar   
    24   11   71 1    
    25   12   13 ar   
    26   12   82 1    
    27   13   14 ar   
    28   13   15 1    
    29   14   83 1    
    30   15   16 1    
    31   15   84 1    
    32   15   85 1    
    33   16   17 1    
    34   17   18 1    
    35   17   86 1    
    36   17   87 1    
    37   18   19 1    
    38   18   37 1    
    39   18   88 1    
    40   19   20 am   BACKBONE|DICT|INTERRES
    41   19   89 1    
    42   20   21 2    
    43   20   22 1    
    44   22   23 1    
    45   22   24 1    
    46   22   90 1    
    47   23   91 1    
    48   23   92 1    
    49   23   93 1    
    50   24   25 am   BACKBONE|DICT|INTERRES
    51   24   94 1    
    52   25   26 2    
    53   25   27 1    
    54   27   28 1    
    55   27   29 1    
    56   27   95 1    
    57   28   96 1    
    58   28   97 1    
    59   28   98 1    
    60   29   30 am   BACKBONE|DICT|INTERRES
    61   29   99 1    
    62   30   31 2    
    63   30   32 1    
    64   32   33 1    
    65   32   34 1    
    66   32  100 1    
    67   33  101 1    
    68   33  102 1    
    69   33  103 1    
    70   34   35 am   BACKBONE|DICT|INTERRES
    71   34  104 1    
    72   35   36 2    
    73   37   38 2    
    74   37   39 am   BACKBONE|DICT|INTERRES
    75   39   40 1    
    76   39  105 1    
    77   40   41 1    
    78   40   42 1    
    79   40  106 1    
    80   41  107 1    
    81   41  108 1    
    82   41  109 1    
    83   42   43 2    
    84   42   44 am   BACKBONE|DICT|INTERRES
    85   44   45 1    
    86   44  110 1    
    87   45   46 1    
    88   45   47 1    
    89   45  111 1    
    90   46  112 1    
    91   46  113 1    
    92   46  114 1    
    93   47   48 2    
    94   47   49 am   BACKBONE|DICT|INTERRES
    95   49   50 1    
    96   49  115 1    
    97   50   51 1    
    98   50   52 1    
    99   50  116 1    
   100   51  117 1    
   101   51  118 1    
   102   51  119 1    
   103   52   53 2    
   104   52   54 am   BACKBONE|DICT|INTERRES
   105   54   55 1    
   106   54  120 1    
   107   55   56 1    
   108   55   57 1    
   109   55  121 1    
   110   56  122 1    
   111   56  123 1    
   112   56  124 1    
   113   57   58 2    
   114   57   59 am   BACKBONE|DICT|INTERRES
   115   59   60 1    
   116   59  125 1    
   117   60   61 1    
   118   60   62 1    
   119   60  126 1    
   120   61  127 1    
   121   61  128 1    
   122   61  129 1    
   123   62   63 2    
   124   62   64 am   BACKBONE|DICT|INTERRES
   125   64   65 1    
   126   64  130 1    
   127   65   66 1    
   128   65   69 1    
   129   65  131 1    
   130   66   67 am   BACKBONE|DICT|INTERRES
   131   66   68 2    
   132   67  132 1    
   133   67  133 1    
   134   69   70 1    
   135   69  134 1    
   136   69  135 1    
   137   70   71 1    
   138   71  136 1    
   139   71  137 1    
@<TRIPOS>SUBSTRUCTURE
     1 UNK         1 GROUP             0       ****    0 ROOT    
