@<TRIPOS>MOLECULE
3R136
137   139    1
SMALL
USER_CHARGES


@<TRIPOS>ATOM
      1 CA         30.3764   26.0233   -4.5224 C.3       0 UNK        -0.1979 
      2 C          29.7837   26.1790   -3.1302 C.2       0 UNK         0.4864 
      3 O          29.3117   27.2622   -2.7865 O.2       0 UNK        -0.5359 
      4 N          29.8082   25.1045   -2.3285 N.am      1 UNK        -0.4318 
      5 CA         29.3201   25.0684   -0.9417 C.3       1 UNK         0.0824 
      6 C6         29.7503   23.7780   -0.1992 C.3       12 UNK        -0.0944 
      7 S7         31.5485   23.4858   -0.3079 S.3       12 UNK        -0.2672 
      8 C8         31.8771   22.5164    1.1945 C.3       12 UNK         0.0333 
      9 C9         31.8661   23.3675    2.4568 C.ar      12 UNK        -0.0807 
     10 C10        32.8448   24.3484    2.6556 C.ar      12 UNK        -0.0894 
     11 C11        32.8794   25.0872    3.8423 C.ar      12 UNK        -0.0804 
     12 C12        31.9295   24.8327    4.8348 C.ar      12 UNK        -0.0824 
     13 C13        30.9339   23.8715    4.6401 C.ar      12 UNK        -0.0762 
     14 C14        30.9080   23.1396    3.4496 C.ar      12 UNK        -0.0782 
     15 C15        29.9018   23.6117    5.7289 C.3       12 UNK         0.0230 
     16 S16        28.2318   24.1644    5.2560 S.3       12 UNK        -0.2608 
     17 C17        28.4853   25.9398    4.9091 C.3       12 UNK        -0.0989 
     18 CA         28.1562   26.2790    3.4278 C.3       5 UNK         0.0716 
     19 N          26.7612   26.0159    3.0489 N.am      5 UNK        -0.4135 
     20 C          25.6586   26.5375    3.6097 C.2       4 UNK         0.5031 
     21 O          25.6676   27.2881    4.5861 O.2       4 UNK        -0.5229 
     22 CA         24.3000   26.1946    2.9696 C.3       4 UNK         0.0329 
     23 CB         23.7039   27.4390    2.2891 C.3       4 UNK        -0.2001 
     24 N          24.3559   25.1155    1.9841 N.am      4 UNK        -0.4303 
     25 C          24.5116   23.8100    2.2313 C.2       3 UNK         0.5044 
     26 O          24.6048   23.3404    3.3650 O.2       3 UNK        -0.5152 
     27 CA         24.6039   22.8624    1.0149 C.3       3 UNK         0.0319 
     28 CB         23.2389   22.2101    0.7201 C.3       3 UNK        -0.2001 
     29 N          25.1884   23.4594   -0.2008 N.am      3 UNK        -0.4354 
     30 C          24.7143   24.4591   -0.9626 C.2       2 UNK         0.4964 
     31 O          23.6298   25.0077   -0.7629 O.2       2 UNK        -0.5047 
     32 CA         25.6215   24.9706   -2.1000 C.3       2 UNK         0.0288 
     33 CB         25.3336   26.4463   -2.4533 C.3       2 UNK        -0.2113 
     34 N          27.0611   24.7902   -1.8633 N.am      2 UNK        -0.4145 
     35 C          27.7952   25.2692   -0.8440 C.2       1 UNK         0.5006 
     36 O          27.3305   25.8523    0.1385 O.2       1 UNK        -0.5103 
     37 C          28.5351   27.7163    3.0198 C.2       5 UNK         0.5055 
     38 O          28.9469   28.5184    3.8574 O.2       5 UNK        -0.5220 
     39 N          28.3405   28.0161    1.7290 N.am      6 UNK        -0.4450 
     40 CA         28.4783   29.3469    1.1337 C.3       6 UNK         0.0367 
     41 CB         27.1844   29.6503    0.3547 C.3       6 UNK        -0.1929 
     42 C          29.7179   29.4811    0.2272 C.2       6 UNK         0.5070 
     43 O          29.7782   30.4278   -0.5586 O.2       6 UNK        -0.5237 
     44 N          30.6788   28.5487    0.3244 N.am      7 UNK        -0.4739 
     45 CA         31.8645   28.4916   -0.5442 C.3       7 UNK         0.0276 
     46 CB         32.5932   27.1513   -0.3524 C.3       7 UNK        -0.1927 
     47 C          32.8483   29.6635   -0.3745 C.2       7 UNK         0.5013 
     48 O          33.5368   30.0114   -1.3353 O.2       7 UNK        -0.5193 
     49 N          32.9022   30.2469    0.8260 N.am      8 UNK        -0.4253 
     50 CA         33.7428   31.3833    1.1871 C.3       8 UNK         0.0242 
     51 CB         35.1879   30.9111    1.4435 C.3       8 UNK        -0.2000 
     52 C          33.1545   32.0345    2.4409 C.2       8 UNK         0.4948 
     53 O          32.3677   31.3989    3.1451 O.2       8 UNK        -0.5275 
     54 N          33.5867   33.2669    2.7388 N.am      9 UNK        -0.4246 
     55 CA         33.1889   34.0202    3.9368 C.3       9 UNK         0.0261 
     56 CB         33.7428   35.4515    3.8430 C.3       9 UNK        -0.1959 
     57 C          33.6174   33.3621    5.2645 C.2       9 UNK         0.5033 
     58 O          32.9933   33.6189    6.2946 O.2       9 UNK        -0.5390 
     59 N          34.6629   32.5254    5.2152 N.am      10 UNK        -0.4215 
     60 CA         35.1509   31.7213    6.3356 C.3       10 UNK         0.0240 
     61 CB         36.6017   31.2996    6.0472 C.3       10 UNK        -0.1982 
     62 C          34.2845   30.4814    6.6307 C.2       10 UNK         0.4970 
     63 O          34.3948   29.9383    7.7310 O.2       10 UNK        -0.4916 
     64 N          33.4716   30.0328    5.6636 N.am      11 UNK        -0.4279 
     65 CA         32.5895   28.8665    5.8060 C.3       11 UNK         0.1003 
     66 C          31.3550   29.1696    6.6984 C.2       11 UNK         0.5709 
     67 N          30.8656   28.1802    7.4350 N.am      11 UNK        -0.7358 
     68 O          30.8254   30.2793    6.7170 O.2       11 UNK        -0.4999 
     69 C69        32.1548   28.2984    4.4309 C.3       12 UNK        -0.0954 
     70 S70        33.5510   27.7628    3.3865 S.3       12 UNK        -0.2268 
     71 C71        33.9672   26.1278    4.0757 C.3       12 UNK         0.0203 
     72 H72        29.6202   26.2359   -5.2776 H         1 UNK         0.0888 
     73 H73        31.2005   26.7233   -4.6581 H         1 UNK         0.0888 
     74 H74        30.7552   25.0160   -4.6947 H         1 UNK         0.0888 
     75 H75        30.2402   24.2517   -2.6561 H         1 UNK         0.3017 
     76 H76        29.7681   25.9158   -0.4216 H         1 UNK         0.0873 
     77 H77        29.2416   22.9029   -0.6083 H         1 UNK         0.0745 
     78 H78        29.4647   23.8381    0.8530 H         1 UNK         0.0745 
     79 H79        31.1556   21.7005    1.2604 H         1 UNK         0.0705 
     80 H80        32.8575   22.0480    1.0978 H         1 UNK         0.0705 
     81 H81        33.5879   24.5265    1.8900 H         1 UNK         0.1334 
     82 H82        31.9645   25.3885    5.7612 H         1 UNK         0.1417 
     83 H83        30.1469   22.3844    3.3062 H         1 UNK         0.1562 
     84 H84        30.1857   24.1034    6.6607 H         1 UNK         0.0748 
     85 H85        29.8708   22.5432    5.9467 H         1 UNK         0.0748 
     86 H86        29.5133   26.2139    5.1438 H         1 UNK         0.0940 
     87 H87        27.8734   26.5229    5.5979 H         1 UNK         0.0940 
     88 H88        28.7697   25.6257    2.8045 H         1 UNK         0.0703 
     89 H89        26.6392   25.4773    2.2014 H         1 UNK         0.3081 
     90 H90        23.6302   25.8854    3.7746 H         1 UNK         0.0719 
     91 H91        23.6070   28.2651    2.9950 H         1 UNK         0.0809 
     92 H92        24.3300   27.7849    1.4653 H         1 UNK         0.0809 
     93 H93        22.7091   27.2363    1.8919 H         1 UNK         0.0809 
     94 H94        24.2193   25.3779    1.0124 H         1 UNK         0.2990 
     95 H95        25.2897   22.0645    1.3045 H         1 UNK         0.0690 
     96 H96        23.3106   21.4911   -0.0959 H         1 UNK         0.0788 
     97 H97        22.4815   22.9475    0.4527 H         1 UNK         0.0788 
     98 H98        22.8694   21.6722    1.5942 H         1 UNK         0.0788 
     99 H99        26.0988   23.0993   -0.4496 H         1 UNK         0.2993 
    100 H100       25.3736   24.3656   -2.9736 H         1 UNK         0.0949 
    101 H101       25.4917   27.1032   -1.5970 H         1 UNK         0.0767 
    102 H102       25.9768   26.7933   -3.2623 H         1 UNK         0.0767 
    103 H103       24.3022   26.5807   -2.7819 H         1 UNK         0.0767 
    104 H104       27.5614   24.3132   -2.6005 H         1 UNK         0.3013 
    105 H105       27.9764   27.2892    1.1154 H         1 UNK         0.3121 
    106 H106       28.5828   30.1000    1.9175 H         1 UNK         0.0774 
    107 H107       27.0506   28.9628   -0.4819 H         1 UNK         0.0815 
    108 H108       26.3073   29.5716    0.9971 H         1 UNK         0.0815 
    109 H109       27.1941   30.6625   -0.0514 H         1 UNK         0.0815 
    110 H110       30.5765   27.8222    1.0169 H         1 UNK         0.2987 
    111 H111       31.5137   28.5341   -1.5778 H         1 UNK         0.0949 
    112 H112       32.7962   26.9395    0.6965 H         1 UNK         0.0806 
    113 H113       32.0117   26.3266   -0.7560 H         1 UNK         0.0806 
    114 H114       33.5497   27.1417   -0.8772 H         1 UNK         0.0806 
    115 H115       32.2841   29.9345    1.5654 H         1 UNK         0.3010 
    116 H116       33.7256   32.1138    0.3754 H         1 UNK         0.0829 
    117 H117       35.2355   30.1875    2.2585 H         1 UNK         0.0813 
    118 H118       35.8383   31.7459    1.7065 H         1 UNK         0.0813 
    119 H119       35.6165   30.4410    0.5583 H         1 UNK         0.0813 
    120 H120       34.2348   33.7230    2.1117 H         1 UNK         0.3038 
    121 H121       32.0981   34.0754    3.9442 H         1 UNK         0.0769 
    122 H122       33.3718   35.9644    2.9555 H         1 UNK         0.0811 
    123 H123       34.8329   35.4622    3.8083 H         1 UNK         0.0811 
    124 H124       33.4391   36.0446    4.7070 H         1 UNK         0.0811 
    125 H125       35.1248   32.3963    4.3275 H         1 UNK         0.3204 
    126 H126       35.1483   32.3425    7.2340 H         1 UNK         0.0748 
    127 H127       36.6717   30.6746    5.1557 H         1 UNK         0.0771 
    128 H128       37.2466   32.1667    5.9027 H         1 UNK         0.0771 
    129 H129       37.0148   30.7270    6.8790 H         1 UNK         0.0771 
    130 H130       33.3573   30.5630    4.8086 H         1 UNK         0.2980 
    131 H131       33.1646   28.0884    6.3112 H         1 UNK         0.0545 
    132 H132       31.3005   27.2726    7.4522 H         1 UNK         0.3459 
    133 H133       30.0592   28.3593    8.0121 H         1 UNK         0.3459 
    134 H134       31.5944   29.0503    3.8752 H         1 UNK         0.0616 
    135 H135       31.4671   27.4642    4.5534 H         1 UNK         0.0616 
    136 H136       34.8969   25.7885    3.6166 H         1 UNK         0.0634 
    137 H137       34.1796   26.2266    5.1409 H         1 UNK         0.0634 
@<TRIPOS>BOND
     1    1    2 1    
     2    1   72 1    
     3    1   73 1    
     4    1   74 1    
     5    2    3 2    
     6    2    4 am   BACKBONE|DICT|INTERRES
     7    4    5 1    
     8    4   75 1    
     9    5    6 1    
    10    5   35 1    
    11    5   76 1    
    12    6    7 1    
    13    6   77 1    
    14    6   78 1    
    15    7    8 1    
    16    8    9 1    
    17    8   79 1    
    18    8   80 1    
    19    9   10 ar   
    20    9   14 ar   
    21   10   11 ar   
    22   10   81 1    
    23   11   12 ar   
    24   11   71 1    
    25   12   13 ar   
    26   12   82 1    
    27   13   14 ar   
    28   13   15 1    
    29   14   83 1    
    30   15   16 1    
    31   15   84 1    
    32   15   85 1    
    33   16   17 1    
    34   17   18 1    
    35   17   86 1    
    36   17   87 1    
    37   18   19 1    
    38   18   37 1    
    39   18   88 1    
    40   19   20 am   BACKBONE|DICT|INTERRES
    41   19   89 1    
    42   20   21 2    
    43   20   22 1    
    44   22   23 1    
    45   22   24 1    
    46   22   90 1    
    47   23   91 1    
    48   23   92 1    
    49   23   93 1    
    50   24   25 am   BACKBONE|DICT|INTERRES
    51   24   94 1    
    52   25   26 2    
    53   25   27 1    
    54   27   28 1    
    55   27   29 1    
    56   27   95 1    
    57   28   96 1    
    58   28   97 1    
    59   28   98 1    
    60   29   30 am   BACKBONE|DICT|INTERRES
    61   29   99 1    
    62   30   31 2    
    63   30   32 1    
    64   32   33 1    
    65   32   34 1    
    66   32  100 1    
    67   33  101 1    
    68   33  102 1    
    69   33  103 1    
    70   34   35 am   BACKBONE|DICT|INTERRES
    71   34  104 1    
    72   35   36 2    
    73   37   38 2    
    74   37   39 am   BACKBONE|DICT|INTERRES
    75   39   40 1    
    76   39  105 1    
    77   40   41 1    
    78   40   42 1    
    79   40  106 1    
    80   41  107 1    
    81   41  108 1    
    82   41  109 1    
    83   42   43 2    
    84   42   44 am   BACKBONE|DICT|INTERRES
    85   44   45 1    
    86   44  110 1    
    87   45   46 1    
    88   45   47 1    
    89   45  111 1    
    90   46  112 1    
    91   46  113 1    
    92   46  114 1    
    93   47   48 2    
    94   47   49 am   BACKBONE|DICT|INTERRES
    95   49   50 1    
    96   49  115 1    
    97   50   51 1    
    98   50   52 1    
    99   50  116 1    
   100   51  117 1    
   101   51  118 1    
   102   51  119 1    
   103   52   53 2    
   104   52   54 am   BACKBONE|DICT|INTERRES
   105   54   55 1    
   106   54  120 1    
   107   55   56 1    
   108   55   57 1    
   109   55  121 1    
   110   56  122 1    
   111   56  123 1    
   112   56  124 1    
   113   57   58 2    
   114   57   59 am   BACKBONE|DICT|INTERRES
   115   59   60 1    
   116   59  125 1    
   117   60   61 1    
   118   60   62 1    
   119   60  126 1    
   120   61  127 1    
   121   61  128 1    
   122   61  129 1    
   123   62   63 2    
   124   62   64 am   BACKBONE|DICT|INTERRES
   125   64   65 1    
   126   64  130 1    
   127   65   66 1    
   128   65   69 1    
   129   65  131 1    
   130   66   67 am   BACKBONE|DICT|INTERRES
   131   66   68 2    
   132   67  132 1    
   133   67  133 1    
   134   69   70 1    
   135   69  134 1    
   136   69  135 1    
   137   70   71 1    
   138   71  136 1    
   139   71  137 1    
@<TRIPOS>SUBSTRUCTURE
     1 UNK         1 GROUP             0       ****    0 ROOT    
