@<TRIPOS>MOLECULE
3R136
137   139    1
SMALL
USER_CHARGES


@<TRIPOS>ATOM
      1 CA         32.7595   26.3754   -4.2200 C.3       0 UNK        -0.1979 
      2 C          31.7005   26.6792   -3.1709 C.2       0 UNK         0.4864 
      3 O          31.6271   27.8102   -2.6890 O.2       0 UNK        -0.5359 
      4 N          30.8883   25.6766   -2.8091 N.am      1 UNK        -0.4318 
      5 CA         29.7801   25.7959   -1.8565 C.3       1 UNK         0.0824 
      6 C6         29.2767   24.3997   -1.3877 C.3       12 UNK        -0.0944 
      7 S7         29.3721   24.2212    0.4212 S.3       12 UNK        -0.2672 
      8 C8         30.8797   23.2195    0.6145 C.3       12 UNK         0.0333 
      9 C9         31.2290   23.1123    2.0885 C.ar      12 UNK        -0.0807 
     10 C10        32.0675   24.0621    2.6769 C.ar      12 UNK        -0.0894 
     11 C11        32.2779   24.0658    4.0570 C.ar      12 UNK        -0.0804 
     12 C12        31.6558   23.0966    4.8498 C.ar      12 UNK        -0.0824 
     13 C13        30.8281   22.1287    4.2700 C.ar      12 UNK        -0.0762 
     14 C14        30.6443   22.1211    2.8828 C.ar      12 UNK        -0.0782 
     15 C15        30.0674   21.1445    5.1505 C.3       12 UNK         0.0230 
     16 S16        28.2637   21.4507    5.1352 S.3       12 UNK        -0.2608 
     17 C17        28.1589   23.2225    5.5746 C.3       12 UNK        -0.0989 
     18 CA         28.0261   24.1110    4.3067 C.3       5 UNK         0.0716 
     19 N          26.7859   23.9007    3.5582 N.am      5 UNK        -0.4135 
     20 C          25.5507   24.2809    3.9044 C.2       4 UNK         0.5031 
     21 O          25.2553   24.8157    4.9750 O.2       4 UNK        -0.5229 
     22 CA         24.4650   24.0469    2.8351 C.3       4 UNK         0.0329 
     23 CB         23.1282   23.6232    3.4700 C.3       4 UNK        -0.2001 
     24 N          24.2375   25.2189    1.9801 N.am      4 UNK        -0.4303 
     25 C          25.1626   25.8666    1.2569 C.2       3 UNK         0.5044 
     26 O          26.3571   25.5611    1.2323 O.2       3 UNK        -0.5152 
     27 CA         24.6692   27.0398    0.3981 C.3       3 UNK         0.0319 
     28 CB         23.9769   28.1367    1.2306 C.3       3 UNK        -0.2001 
     29 N          25.8151   27.5984   -0.3134 N.am      3 UNK        -0.4354 
     30 C          25.7877   28.2046   -1.5047 C.2       2 UNK         0.4964 
     31 O          24.7538   28.4415   -2.1306 O.2       2 UNK        -0.5047 
     32 CA         27.1414   28.6033   -2.1113 C.3       2 UNK         0.0288 
     33 CB         27.5299   30.0226   -1.6639 C.3       2 UNK        -0.2113 
     34 N          28.2019   27.6750   -1.7155 N.am      2 UNK        -0.4145 
     35 C          28.6493   26.6571   -2.4596 C.2       1 UNK         0.5006 
     36 O          28.2160   26.3830   -3.5823 O.2       1 UNK        -0.5103 
     37 C          28.3312   25.6043    4.5389 C.2       5 UNK         0.5055 
     38 O          28.6610   26.0076    5.6561 O.2       5 UNK        -0.5220 
     39 N          28.2337   26.3908    3.4608 N.am      6 UNK        -0.4450 
     40 CA         28.6892   27.7716    3.3897 C.3       6 UNK         0.0367 
     41 CB         27.5118   28.7298    3.6301 C.3       6 UNK        -0.1929 
     42 C          29.3062   27.9681    2.0039 C.2       6 UNK         0.5070 
     43 O          28.5841   27.9035    1.0077 O.2       6 UNK        -0.5237 
     44 N          30.6237   28.1788    1.9621 N.am      7 UNK        -0.4739 
     45 CA         31.3919   28.4679    0.7514 C.3       7 UNK         0.0276 
     46 CB         32.5060   27.4115    0.6066 C.3       7 UNK        -0.1927 
     47 C          31.9015   29.9170    0.8056 C.2       7 UNK         0.5013 
     48 O          31.1716   30.7959    1.2732 O.2       7 UNK        -0.5193 
     49 N          33.1358   30.1537    0.3373 N.am      8 UNK        -0.4253 
     50 CA         33.8252   31.4468    0.3732 C.3       8 UNK         0.0242 
     51 CB         35.2279   31.2960   -0.2368 C.3       8 UNK        -0.2000 
     52 C          33.9109   31.9939    1.8069 C.2       8 UNK         0.4948 
     53 O          34.3664   31.2750    2.6999 O.2       8 UNK        -0.5275 
     54 N          33.4032   33.2199    2.0028 N.am      9 UNK        -0.4246 
     55 CA         33.2405   33.9111    3.2906 C.3       9 UNK         0.0261 
     56 CB         34.6169   34.3295    3.8515 C.3       9 UNK        -0.1959 
     57 C          32.4036   33.1168    4.3186 C.2       9 UNK         0.5033 
     58 O          32.6472   33.2369    5.5207 O.2       9 UNK        -0.5390 
     59 N          31.4690   32.2816    3.8321 N.am      10 UNK        -0.4215 
     60 CA         30.6630   31.3176    4.5930 C.3       10 UNK         0.0240 
     61 CB         29.6160   32.0433    5.4639 C.3       10 UNK        -0.1982 
     62 C          31.5241   30.3133    5.3884 C.2       10 UNK         0.4970 
     63 O          31.1571   29.9451    6.5046 O.2       10 UNK        -0.4916 
     64 N          32.6607   29.9145    4.7977 N.am      11 UNK        -0.4279 
     65 CA         33.7196   29.0793    5.3904 C.3       11 UNK         0.1003 
     66 C          34.6073   29.8210    6.4368 C.2       11 UNK         0.5709 
     67 N          34.4614   31.1241    6.6518 N.am      11 UNK        -0.7358 
     68 O          35.4768   29.2068    7.0509 O.2       11 UNK        -0.4999 
     69 C69        33.2319   27.6951    5.9153 C.3       12 UNK        -0.0954 
     70 S70        32.2572   26.7429    4.7021 S.3       12 UNK        -0.2268 
     71 C71        33.1358   25.1492    4.6918 C.3       12 UNK         0.0203 
     72 H72        32.6169   27.0138   -5.0915 H         1 UNK         0.0888 
     73 H73        33.7530   26.5669   -3.8156 H         1 UNK         0.0888 
     74 H74        32.7219   25.3373   -4.5499 H         1 UNK         0.0888 
     75 H75        30.9767   24.7818   -3.2683 H         1 UNK         0.3017 
     76 H76        30.1751   26.3361   -0.9953 H         1 UNK         0.0873 
     77 H77        28.2404   24.2144   -1.6789 H         1 UNK         0.0745 
     78 H78        29.8452   23.5905   -1.8489 H         1 UNK         0.0745 
     79 H79        30.7232   22.2287    0.1853 H         1 UNK         0.0705 
     80 H80        31.7001   23.6795    0.0611 H         1 UNK         0.0705 
     81 H81        32.5215   24.8318    2.0710 H         1 UNK         0.1334 
     82 H82        31.7897   23.1171    5.9229 H         1 UNK         0.1417 
     83 H83        29.9767   21.3969    2.4354 H         1 UNK         0.1562 
     84 H84        30.4249   21.1887    6.1805 H         1 UNK         0.0748 
     85 H85        30.2584   20.1280    4.8037 H         1 UNK         0.0748 
     86 H86        29.0454   23.4879    6.1532 H         1 UNK         0.0940 
     87 H87        27.3093   23.3770    6.2414 H         1 UNK         0.0940 
     88 H88        28.8058   23.8126    3.6124 H         1 UNK         0.0703 
     89 H89        26.9130   23.5417    2.6220 H         1 UNK         0.3081 
     90 H90        24.7949   23.2303    2.1892 H         1 UNK         0.0719 
     91 H91        22.6980   24.4201    4.0782 H         1 UNK         0.0809 
     92 H92        22.3962   23.3475    2.7106 H         1 UNK         0.0809 
     93 H93        23.2625   22.7560    4.1181 H         1 UNK         0.0809 
     94 H94        23.2870   25.5564    1.9428 H         1 UNK         0.2990 
     95 H95        23.9609   26.6356   -0.3282 H         1 UNK         0.0690 
     96 H96        23.6693   28.9733    0.6030 H         1 UNK         0.0788 
     97 H97        24.6298   28.5297    2.0085 H         1 UNK         0.0788 
     98 H98        23.0779   27.7597    1.7188 H         1 UNK         0.0788 
     99 H99        26.7108   27.4042    0.1267 H         1 UNK         0.2993 
    100 H100       27.0329   28.6058   -3.1982 H         1 UNK         0.0949 
    101 H101       26.7664   30.7462   -1.9525 H         1 UNK         0.0767 
    102 H102       27.6503   30.0866   -0.5813 H         1 UNK         0.0767 
    103 H103       28.4673   30.3381   -2.1227 H         1 UNK         0.0767 
    104 H104       28.5466   27.7827   -0.7613 H         1 UNK         0.3013 
    105 H105       27.9143   25.9956    2.5793 H         1 UNK         0.3121 
    106 H106       29.4518   27.9563    4.1498 H         1 UNK         0.0774 
    107 H107       27.0801   28.5857    4.6206 H         1 UNK         0.0815 
    108 H108       27.8316   29.7697    3.5594 H         1 UNK         0.0815 
    109 H109       26.7225   28.5807    2.8950 H         1 UNK         0.0815 
    110 H110       31.1425   28.1946    2.8295 H         1 UNK         0.2987 
    111 H111       30.7544   28.4169   -0.1323 H         1 UNK         0.0949 
    112 H112       33.0836   27.5524   -0.3074 H         1 UNK         0.0806 
    113 H113       33.1969   27.4268    1.4508 H         1 UNK         0.0806 
    114 H114       32.0761   26.4131    0.5429 H         1 UNK         0.0806 
    115 H115       33.6684   29.3721   -0.0144 H         1 UNK         0.3010 
    116 H116       33.2522   32.1417   -0.2443 H         1 UNK         0.0829 
    117 H117       35.1785   30.9518   -1.2701 H         1 UNK         0.0813 
    118 H118       35.7566   32.2503   -0.2392 H         1 UNK         0.0813 
    119 H119       35.8383   30.5877    0.3255 H         1 UNK         0.0813 
    120 H120       33.0327   33.7124    1.2009 H         1 UNK         0.3038 
    121 H121       32.6760   34.8214    3.0832 H         1 UNK         0.0769 
    122 H122       35.2131   33.4643    4.1441 H         1 UNK         0.0811 
    123 H123       34.5064   34.9609    4.7339 H         1 UNK         0.0811 
    124 H124       35.1886   34.8986    3.1186 H         1 UNK         0.0811 
    125 H125       31.3790   32.2001    2.8236 H         1 UNK         0.3204 
    126 H126       30.1216   30.7268    3.8534 H         1 UNK         0.0748 
    127 H127       29.0110   32.7271    4.8687 H         1 UNK         0.0771 
    128 H128       28.9335   31.3314    5.9301 H         1 UNK         0.0771 
    129 H129       30.0838   32.6180    6.2640 H         1 UNK         0.0771 
    130 H130       32.9251   30.3474    3.9199 H         1 UNK         0.2980 
    131 H131       34.3977   28.8777    4.5606 H         1 UNK         0.0545 
    132 H132       35.0591   31.5744    7.3257 H         1 UNK         0.3459 
    133 H133       33.7561   31.6683    6.1682 H         1 UNK         0.3459 
    134 H134       34.0910   27.0943    6.2178 H         1 UNK         0.0616 
    135 H135       32.6261   27.8133    6.8145 H         1 UNK         0.0616 
    136 H136       33.3979   24.8701    5.7135 H         1 UNK         0.0634 
    137 H137       34.0731   25.2545    4.1437 H         1 UNK         0.0634 
@<TRIPOS>BOND
     1    1    2 1    
     2    1   72 1    
     3    1   73 1    
     4    1   74 1    
     5    2    3 2    
     6    2    4 am   BACKBONE|DICT|INTERRES
     7    4    5 1    
     8    4   75 1    
     9    5    6 1    
    10    5   35 1    
    11    5   76 1    
    12    6    7 1    
    13    6   77 1    
    14    6   78 1    
    15    7    8 1    
    16    8    9 1    
    17    8   79 1    
    18    8   80 1    
    19    9   10 ar   
    20    9   14 ar   
    21   10   11 ar   
    22   10   81 1    
    23   11   12 ar   
    24   11   71 1    
    25   12   13 ar   
    26   12   82 1    
    27   13   14 ar   
    28   13   15 1    
    29   14   83 1    
    30   15   16 1    
    31   15   84 1    
    32   15   85 1    
    33   16   17 1    
    34   17   18 1    
    35   17   86 1    
    36   17   87 1    
    37   18   19 1    
    38   18   37 1    
    39   18   88 1    
    40   19   20 am   BACKBONE|DICT|INTERRES
    41   19   89 1    
    42   20   21 2    
    43   20   22 1    
    44   22   23 1    
    45   22   24 1    
    46   22   90 1    
    47   23   91 1    
    48   23   92 1    
    49   23   93 1    
    50   24   25 am   BACKBONE|DICT|INTERRES
    51   24   94 1    
    52   25   26 2    
    53   25   27 1    
    54   27   28 1    
    55   27   29 1    
    56   27   95 1    
    57   28   96 1    
    58   28   97 1    
    59   28   98 1    
    60   29   30 am   BACKBONE|DICT|INTERRES
    61   29   99 1    
    62   30   31 2    
    63   30   32 1    
    64   32   33 1    
    65   32   34 1    
    66   32  100 1    
    67   33  101 1    
    68   33  102 1    
    69   33  103 1    
    70   34   35 am   BACKBONE|DICT|INTERRES
    71   34  104 1    
    72   35   36 2    
    73   37   38 2    
    74   37   39 am   BACKBONE|DICT|INTERRES
    75   39   40 1    
    76   39  105 1    
    77   40   41 1    
    78   40   42 1    
    79   40  106 1    
    80   41  107 1    
    81   41  108 1    
    82   41  109 1    
    83   42   43 2    
    84   42   44 am   BACKBONE|DICT|INTERRES
    85   44   45 1    
    86   44  110 1    
    87   45   46 1    
    88   45   47 1    
    89   45  111 1    
    90   46  112 1    
    91   46  113 1    
    92   46  114 1    
    93   47   48 2    
    94   47   49 am   BACKBONE|DICT|INTERRES
    95   49   50 1    
    96   49  115 1    
    97   50   51 1    
    98   50   52 1    
    99   50  116 1    
   100   51  117 1    
   101   51  118 1    
   102   51  119 1    
   103   52   53 2    
   104   52   54 am   BACKBONE|DICT|INTERRES
   105   54   55 1    
   106   54  120 1    
   107   55   56 1    
   108   55   57 1    
   109   55  121 1    
   110   56  122 1    
   111   56  123 1    
   112   56  124 1    
   113   57   58 2    
   114   57   59 am   BACKBONE|DICT|INTERRES
   115   59   60 1    
   116   59  125 1    
   117   60   61 1    
   118   60   62 1    
   119   60  126 1    
   120   61  127 1    
   121   61  128 1    
   122   61  129 1    
   123   62   63 2    
   124   62   64 am   BACKBONE|DICT|INTERRES
   125   64   65 1    
   126   64  130 1    
   127   65   66 1    
   128   65   69 1    
   129   65  131 1    
   130   66   67 am   BACKBONE|DICT|INTERRES
   131   66   68 2    
   132   67  132 1    
   133   67  133 1    
   134   69   70 1    
   135   69  134 1    
   136   69  135 1    
   137   70   71 1    
   138   71  136 1    
   139   71  137 1    
@<TRIPOS>SUBSTRUCTURE
     1 UNK         1 GROUP             0       ****    0 ROOT    
