@<TRIPOS>MOLECULE
3R136
137   139    1
SMALL
USER_CHARGES


@<TRIPOS>ATOM
      1 CA         30.2966   23.6249   -5.8309 C.3       0 UNK        -0.1979 
      2 C          30.3404   23.9100   -4.3371 C.2       0 UNK         0.4864 
      3 O          30.4118   22.9720   -3.5409 O.2       0 UNK        -0.5359 
      4 N          30.2926   25.1955   -3.9559 N.am      1 UNK        -0.4318 
      5 CA         30.3018   25.7331   -2.5875 C.3       1 UNK         0.0824 
      6 C6         31.6097   25.4082   -1.8055 C.3       12 UNK        -0.0944 
      7 S7         31.6029   25.8701   -0.0366 S.3       12 UNK        -0.2672 
      8 C8         31.6741   24.2181    0.7205 C.3       12 UNK         0.0333 
      9 C9         31.3004   24.2539    2.1926 C.ar      12 UNK        -0.0807 
     10 C10        32.1989   24.7566    3.1376 C.ar      12 UNK        -0.0894 
     11 C11        31.8703   24.7599    4.4964 C.ar      12 UNK        -0.0804 
     12 C12        30.6340   24.2530    4.9080 C.ar      12 UNK        -0.0824 
     13 C13        29.7313   23.7396    3.9712 C.ar      12 UNK        -0.0762 
     14 C14        30.0677   23.7481    2.6146 C.ar      12 UNK        -0.0782 
     15 C15        28.4033   23.1489    4.4222 C.3       12 UNK         0.0230 
     16 S16        26.9873   24.1460    3.8666 S.3       12 UNK        -0.2608 
     17 C17        27.2639   25.7078    4.7708 C.3       12 UNK        -0.0989 
     18 CA         27.8167   26.8294    3.8573 C.3       5 UNK         0.0716 
     19 N          26.9305   27.0802    2.7218 N.am      5 UNK        -0.4135 
     20 C          27.1267   27.9399    1.7163 C.2       4 UNK         0.5031 
     21 O          28.1282   28.6547    1.6111 O.2       4 UNK        -0.5229 
     22 CA         25.9990   27.9981    0.6623 C.3       4 UNK         0.0329 
     23 CB         26.3068   28.9568   -0.5023 C.3       4 UNK        -0.2001 
     24 N          25.6688   26.6697    0.1244 N.am      4 UNK        -0.4303 
     25 C          24.9153   25.7528    0.7520 C.2       3 UNK         0.5044 
     26 O          24.4129   25.9574    1.8582 O.2       3 UNK        -0.5152 
     27 CA         24.6871   24.3831    0.0783 C.3       3 UNK         0.0319 
     28 CB         23.2162   23.9464    0.2054 C.3       3 UNK        -0.2001 
     29 N          25.0506   24.3501   -1.3419 N.am      3 UNK        -0.4354 
     30 C          26.2236   24.0150   -1.8969 C.2       2 UNK         0.4964 
     31 O          26.3533   23.9602   -3.1204 O.2       2 UNK        -0.5047 
     32 CA         27.4396   23.6766   -1.0041 C.3       2 UNK         0.0288 
     33 CB         27.5322   22.1634   -0.7514 C.3       2 UNK        -0.2113 
     34 N          28.6856   24.1341   -1.6208 N.am      2 UNK        -0.4145 
     35 C          28.9921   25.4204   -1.8291 C.2       1 UNK         0.5006 
     36 O          28.2704   26.3490   -1.4651 O.2       1 UNK        -0.5103 
     37 C          28.0324   28.1213    4.6644 C.2       5 UNK         0.5055 
     38 O          27.0511   28.7791    5.0187 O.2       5 UNK        -0.5220 
     39 N          29.3040   28.4616    4.9180 N.am      6 UNK        -0.4450 
     40 CA         29.7704   29.6795    5.5978 C.3       6 UNK         0.0367 
     41 CB         29.2748   29.7189    7.0602 C.3       6 UNK        -0.1929 
     42 C          29.4701   30.9932    4.8397 C.2       6 UNK         0.5070 
     43 O          29.5915   32.0679    5.4305 O.2       6 UNK        -0.5237 
     44 N          29.0995   30.9004    3.5544 N.am      7 UNK        -0.4739 
     45 CA         28.8765   32.0376    2.6603 C.3       7 UNK         0.0276 
     46 CB         27.3948   32.1024    2.2552 C.3       7 UNK        -0.1927 
     47 C          29.7929   31.9374    1.4349 C.2       7 UNK         0.5013 
     48 O          30.4660   32.9147    1.1062 O.2       7 UNK        -0.5193 
     49 N          29.8387   30.7560    0.8018 N.am      8 UNK        -0.4253 
     50 CA         30.7426   30.4500   -0.3125 C.3       8 UNK         0.0242 
     51 CB         30.1162   29.3466   -1.1779 C.3       8 UNK        -0.2000 
     52 C          32.1587   30.0469    0.1426 C.2       8 UNK         0.4948 
     53 O          33.0494   29.9401   -0.7019 O.2       8 UNK        -0.5275 
     54 N          32.3488   29.8373    1.4496 N.am      9 UNK        -0.4246 
     55 CA         33.6189   29.5247    2.0946 C.3       9 UNK         0.0261 
     56 CB         33.6650   28.0239    2.4239 C.3       9 UNK        -0.1959 
     57 C          33.7380   30.3695    3.3666 C.2       9 UNK         0.5033 
     58 O          32.7201   30.7989    3.9132 O.2       9 UNK        -0.5390 
     59 N          34.9783   30.5695    3.8274 N.am      10 UNK        -0.4215 
     60 CA         35.3278   31.3907    4.9931 C.3       10 UNK         0.0240 
     61 CB         36.7923   31.8442    4.8490 C.3       10 UNK        -0.1982 
     62 C          35.0932   30.7071    6.3572 C.2       10 UNK         0.4970 
     63 O          35.4452   31.2931    7.3827 O.2       10 UNK        -0.4916 
     64 N          34.5405   29.4878    6.3590 N.am      11 UNK        -0.4279 
     65 CA         34.1828   28.7145    7.5560 C.3       11 UNK         0.1003 
     66 C          33.0699   29.3613    8.4328 C.2       11 UNK         0.5709 
     67 N          32.8741   28.8646    9.6474 N.am      11 UNK        -0.7358 
     68 O          32.3811   30.2964    8.0321 O.2       11 UNK        -0.4999 
     69 C69        33.8834   27.2343    7.1971 C.3       12 UNK        -0.0954 
     70 S70        32.5564   27.0044    5.9642 S.3       12 UNK        -0.2268 
     71 C71        32.8675   25.2698    5.5237 C.3       12 UNK         0.0203 
     72 H72        30.2487   24.5400   -6.4210 H         1 UNK         0.0888 
     73 H73        31.1862   23.0730   -6.1331 H         1 UNK         0.0888 
     74 H74        29.4222   23.0204   -6.0706 H         1 UNK         0.0888 
     75 H75        30.2071   25.8999   -4.6760 H         1 UNK         0.3017 
     76 H76        30.2943   26.8151   -2.7217 H         1 UNK         0.0873 
     77 H77        31.8522   24.3487   -1.8867 H         1 UNK         0.0745 
     78 H78        32.4454   25.9270   -2.2773 H         1 UNK         0.0745 
     79 H79        32.6803   23.8127    0.6051 H         1 UNK         0.0705 
     80 H80        31.0062   23.5426    0.1834 H         1 UNK         0.0705 
     81 H81        33.1579   25.1367    2.8131 H         1 UNK         0.1334 
     82 H82        30.3839   24.2459    5.9603 H         1 UNK         0.1417 
     83 H83        29.3692   23.3514    1.8903 H         1 UNK         0.1562 
     84 H84        28.3674   23.0445    5.5078 H         1 UNK         0.0748 
     85 H85        28.3047   22.1412    4.0161 H         1 UNK         0.0748 
     86 H86        27.9380   25.5278    5.6105 H         1 UNK         0.0940 
     87 H87        26.3115   26.0092    5.2122 H         1 UNK         0.0940 
     88 H88        28.7761   26.5057    3.4478 H         1 UNK         0.0703 
     89 H89        26.0605   26.5574    2.7175 H         1 UNK         0.3081 
     90 H90        25.1190   28.3933    1.1743 H         1 UNK         0.0719 
     91 H91        27.1701   28.6279   -1.0772 H         1 UNK         0.0809 
     92 H92        25.4611   29.0326   -1.1856 H         1 UNK         0.0809 
     93 H93        26.5205   29.9632   -0.1433 H         1 UNK         0.0809 
     94 H94        26.1277   26.4234   -0.7437 H         1 UNK         0.2990 
     95 H95        25.2801   23.6537    0.6315 H         1 UNK         0.0690 
     96 H96        23.0526   22.9665   -0.2438 H         1 UNK         0.0788 
     97 H97        22.5413   24.6542   -0.2776 H         1 UNK         0.0788 
     98 H98        22.9147   23.8702    1.2512 H         1 UNK         0.0788 
     99 H99        24.3005   24.5925   -1.9734 H         1 UNK         0.2993 
    100 H100       27.3604   24.1915   -0.0459 H         1 UNK         0.0949 
    101 H101       26.6296   21.7886   -0.2674 H         1 UNK         0.0767 
    102 H102       27.6572   21.6087   -1.6825 H         1 UNK         0.0767 
    103 H103       28.3730   21.9199   -0.1016 H         1 UNK         0.0767 
    104 H104       29.2817   23.4388   -2.0618 H         1 UNK         0.3013 
    105 H105       30.0387   27.8494    4.5885 H         1 UNK         0.3121 
    106 H106       30.8587   29.6068    5.6286 H         1 UNK         0.0774 
    107 H107       29.7234   30.5520    7.6021 H         1 UNK         0.0815 
    108 H108       28.1938   29.8418    7.1250 H         1 UNK         0.0815 
    109 H109       29.5465   28.8081    7.5936 H         1 UNK         0.0815 
    110 H110       28.9811   29.9796    3.1504 H         1 UNK         0.2987 
    111 H111       29.1262   32.9742    3.1641 H         1 UNK         0.0949 
    112 H112       27.2172   32.9102    1.5440 H         1 UNK         0.0806 
    113 H113       27.0577   31.1761    1.7927 H         1 UNK         0.0806 
    114 H114       26.7607   32.2877    3.1223 H         1 UNK         0.0806 
    115 H115       29.2266   29.9989    1.1051 H         1 UNK         0.3010 
    116 H116       30.8514   31.3404   -0.9355 H         1 UNK         0.0829 
    117 H117       29.1803   29.6810   -1.6233 H         1 UNK         0.0813 
    118 H118       30.7795   29.0680   -1.9974 H         1 UNK         0.0813 
    119 H119       29.9131   28.4459   -0.5971 H         1 UNK         0.0813 
    120 H120       31.5930   30.0425    2.0890 H         1 UNK         0.3038 
    121 H121       34.4517   29.7802    1.4356 H         1 UNK         0.0769 
    122 H122       34.5651   27.7613    2.9810 H         1 UNK         0.0811 
    123 H123       33.6644   27.4255    1.5133 H         1 UNK         0.0811 
    124 H124       32.8057   27.7188    3.0217 H         1 UNK         0.0811 
    125 H125       35.7524   30.1536    3.3283 H         1 UNK         0.3204 
    126 H126       34.6980   32.2829    4.9813 H         1 UNK         0.0748 
    127 H127       37.0776   32.5212    5.6556 H         1 UNK         0.0771 
    128 H128       37.4808   30.9986    4.8750 H         1 UNK         0.0771 
    129 H129       36.9522   32.3803    3.9132 H         1 UNK         0.0771 
    130 H130       34.2333   29.0989    5.4815 H         1 UNK         0.2980 
    131 H131       35.0761   28.7117    8.1837 H         1 UNK         0.0545 
    132 H132       33.4287   28.0987    9.9957 H         1 UNK         0.3459 
    133 H133       32.1571   29.2689   10.2287 H         1 UNK         0.3459 
    134 H134       33.6327   26.6580    8.0891 H         1 UNK         0.0616 
    135 H135       34.7935   26.7794    6.8029 H         1 UNK         0.0616 
    136 H136       32.8176   24.6554    6.4241 H         1 UNK         0.0634 
    137 H137       33.8843   25.1728    5.1400 H         1 UNK         0.0634 
@<TRIPOS>BOND
     1    1    2 1    
     2    1   72 1    
     3    1   73 1    
     4    1   74 1    
     5    2    3 2    
     6    2    4 am   BACKBONE|DICT|INTERRES
     7    4    5 1    
     8    4   75 1    
     9    5    6 1    
    10    5   35 1    
    11    5   76 1    
    12    6    7 1    
    13    6   77 1    
    14    6   78 1    
    15    7    8 1    
    16    8    9 1    
    17    8   79 1    
    18    8   80 1    
    19    9   10 ar   
    20    9   14 ar   
    21   10   11 ar   
    22   10   81 1    
    23   11   12 ar   
    24   11   71 1    
    25   12   13 ar   
    26   12   82 1    
    27   13   14 ar   
    28   13   15 1    
    29   14   83 1    
    30   15   16 1    
    31   15   84 1    
    32   15   85 1    
    33   16   17 1    
    34   17   18 1    
    35   17   86 1    
    36   17   87 1    
    37   18   19 1    
    38   18   37 1    
    39   18   88 1    
    40   19   20 am   BACKBONE|DICT|INTERRES
    41   19   89 1    
    42   20   21 2    
    43   20   22 1    
    44   22   23 1    
    45   22   24 1    
    46   22   90 1    
    47   23   91 1    
    48   23   92 1    
    49   23   93 1    
    50   24   25 am   BACKBONE|DICT|INTERRES
    51   24   94 1    
    52   25   26 2    
    53   25   27 1    
    54   27   28 1    
    55   27   29 1    
    56   27   95 1    
    57   28   96 1    
    58   28   97 1    
    59   28   98 1    
    60   29   30 am   BACKBONE|DICT|INTERRES
    61   29   99 1    
    62   30   31 2    
    63   30   32 1    
    64   32   33 1    
    65   32   34 1    
    66   32  100 1    
    67   33  101 1    
    68   33  102 1    
    69   33  103 1    
    70   34   35 am   BACKBONE|DICT|INTERRES
    71   34  104 1    
    72   35   36 2    
    73   37   38 2    
    74   37   39 am   BACKBONE|DICT|INTERRES
    75   39   40 1    
    76   39  105 1    
    77   40   41 1    
    78   40   42 1    
    79   40  106 1    
    80   41  107 1    
    81   41  108 1    
    82   41  109 1    
    83   42   43 2    
    84   42   44 am   BACKBONE|DICT|INTERRES
    85   44   45 1    
    86   44  110 1    
    87   45   46 1    
    88   45   47 1    
    89   45  111 1    
    90   46  112 1    
    91   46  113 1    
    92   46  114 1    
    93   47   48 2    
    94   47   49 am   BACKBONE|DICT|INTERRES
    95   49   50 1    
    96   49  115 1    
    97   50   51 1    
    98   50   52 1    
    99   50  116 1    
   100   51  117 1    
   101   51  118 1    
   102   51  119 1    
   103   52   53 2    
   104   52   54 am   BACKBONE|DICT|INTERRES
   105   54   55 1    
   106   54  120 1    
   107   55   56 1    
   108   55   57 1    
   109   55  121 1    
   110   56  122 1    
   111   56  123 1    
   112   56  124 1    
   113   57   58 2    
   114   57   59 am   BACKBONE|DICT|INTERRES
   115   59   60 1    
   116   59  125 1    
   117   60   61 1    
   118   60   62 1    
   119   60  126 1    
   120   61  127 1    
   121   61  128 1    
   122   61  129 1    
   123   62   63 2    
   124   62   64 am   BACKBONE|DICT|INTERRES
   125   64   65 1    
   126   64  130 1    
   127   65   66 1    
   128   65   69 1    
   129   65  131 1    
   130   66   67 am   BACKBONE|DICT|INTERRES
   131   66   68 2    
   132   67  132 1    
   133   67  133 1    
   134   69   70 1    
   135   69  134 1    
   136   69  135 1    
   137   70   71 1    
   138   71  136 1    
   139   71  137 1    
@<TRIPOS>SUBSTRUCTURE
     1 UNK         1 GROUP             0       ****    0 ROOT    
