@<TRIPOS>MOLECULE
3R136
137   139    1
SMALL
USER_CHARGES


@<TRIPOS>ATOM
      1 CA         31.9129   22.4912   -3.5625 C.3       0 UNK        -0.1979 
      2 C          30.9034   22.1080   -2.4900 C.2       0 UNK         0.4864 
      3 O          29.9858   21.3344   -2.7697 O.2       0 UNK        -0.5359 
      4 N          31.0758   22.6443   -1.2732 N.am      1 UNK        -0.4318 
      5 CA         30.2159   22.4472   -0.0964 C.3       1 UNK         0.0824 
      6 C6         30.2087   20.9761    0.4266 C.3       12 UNK        -0.0944 
      7 S7         31.8840   20.3901    0.8729 S.3       12 UNK        -0.2672 
      8 C8         31.9252   20.6359    2.6820 C.3       12 UNK         0.0333 
      9 C9         31.6349   22.0829    3.0502 C.ar      12 UNK        -0.0807 
     10 C10        32.6145   23.0656    2.8804 C.ar      12 UNK        -0.0894 
     11 C11        32.3227   24.4150    3.1040 C.ar      12 UNK        -0.0804 
     12 C12        31.0253   24.7672    3.5018 C.ar      12 UNK        -0.0824 
     13 C13        30.0433   23.7902    3.7019 C.ar      12 UNK        -0.0762 
     14 C14        30.3613   22.4480    3.4922 C.ar      12 UNK        -0.0782 
     15 C15        28.6143   24.1762    4.0581 C.3       12 UNK         0.0230 
     16 S16        28.5244   25.4235    5.3798 S.3       12 UNK        -0.2608 
     17 C17        27.1367   26.4537    4.8007 C.3       12 UNK        -0.0989 
     18 CA         27.6338   27.6564    3.9579 C.3       5 UNK         0.0716 
     19 N          28.0651   27.2519    2.6124 N.am      5 UNK        -0.4135 
     20 C          29.0302   27.8731    1.9152 C.2       4 UNK         0.5031 
     21 O          29.7090   28.7907    2.3686 O.2       4 UNK        -0.5229 
     22 CA         29.2746   27.4318    0.4553 C.3       4 UNK         0.0329 
     23 CB         30.4678   26.4685    0.3713 C.3       4 UNK        -0.2001 
     24 N          28.1126   26.8201   -0.1963 N.am      4 UNK        -0.4303 
     25 C          26.9222   27.4176   -0.3521 C.2       3 UNK         0.5044 
     26 O          26.7099   28.5865   -0.0335 O.2       3 UNK        -0.5152 
     27 CA         25.7483   26.5679   -0.8730 C.3       3 UNK         0.0319 
     28 CB         25.4857   26.8722   -2.3557 C.3       3 UNK        -0.2001 
     29 N          25.9157   25.1214   -0.6991 N.am      3 UNK        -0.4354 
     30 C          26.1399   24.4790    0.4573 C.2       2 UNK         0.4964 
     31 O          26.2109   25.0431    1.5510 O.2       2 UNK        -0.5047 
     32 CA         26.3770   22.9577    0.3707 C.3       2 UNK         0.0288 
     33 CB         25.7249   22.3047   -0.8691 C.3       2 UNK        -0.2113 
     34 N          27.7997   22.5878    0.4382 N.am      2 UNK        -0.4145 
     35 C          28.8105   23.0658   -0.3089 C.2       1 UNK         0.5006 
     36 O          28.6788   23.9928   -1.1142 O.2       1 UNK        -0.5103 
     37 C          26.5711   28.7767    3.9181 C.2       5 UNK         0.5055 
     38 O          26.3816   29.4425    4.9376 O.2       5 UNK        -0.5220 
     39 N          25.8891   28.9728    2.7790 N.am      6 UNK        -0.4450 
     40 CA         24.9508   30.0797    2.5695 C.3       6 UNK         0.0367 
     41 CB         23.8831   29.6752    1.5389 C.3       6 UNK        -0.1929 
     42 C          25.6946   31.3495    2.1252 C.2       6 UNK         0.5070 
     43 O          25.3439   32.4459    2.5631 O.2       6 UNK        -0.5237 
     44 N          26.7176   31.1745    1.2783 N.am      7 UNK        -0.4739 
     45 CA         27.6686   32.2083    0.8708 C.3       7 UNK         0.0276 
     46 CB         28.5009   31.6646   -0.3029 C.3       7 UNK        -0.1927 
     47 C          28.5948   32.6277    2.0271 C.2       7 UNK         0.5013 
     48 O          28.8024   31.8618    2.9704 O.2       7 UNK        -0.5193 
     49 N          29.1928   33.8191    1.9082 N.am      8 UNK        -0.4253 
     50 CA         30.1647   34.3675    2.8609 C.3       8 UNK         0.0242 
     51 CB         30.1038   35.9062    2.8024 C.3       8 UNK        -0.2000 
     52 C          31.5886   33.8188    2.6226 C.2       8 UNK         0.4948 
     53 O          32.5413   34.5974    2.5419 O.2       8 UNK        -0.5275 
     54 N          31.7127   32.4925    2.4914 N.am      9 UNK        -0.4246 
     55 CA         32.9824   31.7871    2.3200 C.3       9 UNK         0.0261 
     56 CB         32.7275   30.4761    1.5606 C.3       9 UNK        -0.1959 
     57 C          33.6284   31.5027    3.6841 C.2       9 UNK         0.5033 
     58 O          32.9204   31.3223    4.6790 O.2       9 UNK        -0.5390 
     59 N          34.9642   31.4191    3.7054 N.am      10 UNK        -0.4215 
     60 CA         35.7787   31.1525    4.8967 C.3       10 UNK         0.0240 
     61 CB         37.1861   31.7406    4.6775 C.3       10 UNK        -0.1982 
     62 C          35.8115   29.6552    5.2724 C.2       10 UNK         0.4970 
     63 O          36.8913   29.0881    5.4504 O.2       10 UNK        -0.4916 
     64 N          34.6293   29.0390    5.3768 N.am      11 UNK        -0.4279 
     65 CA         34.4404   27.6239    5.7377 C.3       11 UNK         0.1003 
     66 C          34.5561   27.3315    7.2622 C.2       11 UNK         0.5709 
     67 N          34.6151   28.3326    8.1331 N.am      11 UNK        -0.7358 
     68 O          34.6073   26.1710    7.6624 O.2       11 UNK        -0.4999 
     69 C69        33.1186   27.0579    5.1567 C.3       12 UNK        -0.0954 
     70 S70        33.0602   27.1664    3.3369 S.3       12 UNK        -0.2268 
     71 C71        33.4301   25.4437    2.8545 C.3       12 UNK         0.0203 
     72 H72        32.6753   23.1709   -3.1822 H         1 UNK         0.0888 
     73 H73        32.4126   21.6005   -3.9423 H         1 UNK         0.0888 
     74 H74        31.4076   22.9804   -4.3948 H         1 UNK         0.0888 
     75 H75        31.8442   23.2838   -1.1315 H         1 UNK         0.3017 
     76 H76        30.6619   23.0694    0.6781 H         1 UNK         0.0873 
     77 H77        29.5691   20.8551    1.3003 H         1 UNK         0.0745 
     78 H78        29.8022   20.3024   -0.3291 H         1 UNK         0.0745 
     79 H79        31.2085   19.9625    3.1547 H         1 UNK         0.0705 
     80 H80        32.9086   20.3511    3.0587 H         1 UNK         0.0705 
     81 H81        33.5990   22.7798    2.5350 H         1 UNK         0.1334 
     82 H82        30.7601   25.8047    3.6447 H         1 UNK         0.1417 
     83 H83        29.6015   21.6893    3.6231 H         1 UNK         0.1562 
     84 H84        28.0345   23.3051    4.3669 H         1 UNK         0.0748 
     85 H85        28.1452   24.5512    3.1514 H         1 UNK         0.0748 
     86 H86        26.4121   25.8508    4.2498 H         1 UNK         0.0940 
     87 H87        26.6167   26.7962    5.6981 H         1 UNK         0.0940 
     88 H88        28.4904   28.0892    4.4803 H         1 UNK         0.0703 
     89 H89        27.5416   26.5000    2.1764 H         1 UNK         0.3081 
     90 H90        29.5260   28.3298   -0.1124 H         1 UNK         0.0719 
     91 H91        30.2697   25.5402    0.9052 H         1 UNK         0.0809 
     92 H92        30.7048   26.2170   -0.6625 H         1 UNK         0.0809 
     93 H93        31.3613   26.9150    0.8092 H         1 UNK         0.0809 
     94 H94        28.2139   25.8583   -0.5082 H         1 UNK         0.2990 
     95 H95        24.8653   26.8612   -0.3017 H         1 UNK         0.0690 
     96 H96        24.5927   26.3604   -2.7149 H         1 UNK         0.0788 
     97 H97        26.3244   26.5686   -2.9837 H         1 UNK         0.0788 
     98 H98        25.3296   27.9405   -2.5137 H         1 UNK         0.0788 
     99 H99        25.9268   24.5688   -1.5443 H         1 UNK         0.2993 
    100 H100       25.8999   22.5320    1.2551 H         1 UNK         0.0949 
    101 H101       25.7713   21.2175   -0.8036 H         1 UNK         0.0767 
    102 H102       24.6704   22.5731   -0.9505 H         1 UNK         0.0767 
    103 H103       26.2170   22.5942   -1.7985 H         1 UNK         0.0767 
    104 H104       28.0151   21.8607    1.1045 H         1 UNK         0.3013 
    105 H105       26.1419   28.4405    1.9562 H         1 UNK         0.3121 
    106 H106       24.4383   30.3013    3.5083 H         1 UNK         0.0774 
    107 H107       24.3114   29.4872    0.5543 H         1 UNK         0.0815 
    108 H108       23.1418   30.4667    1.4216 H         1 UNK         0.0815 
    109 H109       23.3507   28.7767    1.8508 H         1 UNK         0.0815 
    110 H110       26.8958   30.2365    0.9322 H         1 UNK         0.2987 
    111 H111       27.1039   33.0821    0.5384 H         1 UNK         0.0949 
    112 H112       29.0988   30.8028   -0.0028 H         1 UNK         0.0806 
    113 H113       27.8644   31.3560   -1.1326 H         1 UNK         0.0806 
    114 H114       29.1879   32.4204   -0.6854 H         1 UNK         0.0806 
    115 H115       29.0125   34.3744    1.0837 H         1 UNK         0.3010 
    116 H116       29.8782   34.0674    3.8715 H         1 UNK         0.0829 
    117 H117       29.0989   36.2721    3.0143 H         1 UNK         0.0813 
    118 H118       30.7696   36.3531    3.5421 H         1 UNK         0.0813 
    119 H119       30.4009   36.2857    1.8240 H         1 UNK         0.0813 
    120 H120       30.8886   31.9209    2.6468 H         1 UNK         0.3038 
    121 H121       33.6601   32.4050    1.7267 H         1 UNK         0.0769 
    122 H122       32.0843   29.8054    2.1301 H         1 UNK         0.0811 
    123 H123       33.6596   29.9433    1.3686 H         1 UNK         0.0811 
    124 H124       32.2511   30.6577    0.5971 H         1 UNK         0.0811 
    125 H125       35.4684   31.5298    2.8370 H         1 UNK         0.3204 
    126 H126       35.3347   31.6783    5.7448 H         1 UNK         0.0748 
    127 H127       37.8058   31.6176    5.5670 H         1 UNK         0.0771 
    128 H128       37.7032   31.2545    3.8492 H         1 UNK         0.0771 
    129 H129       37.1412   32.8090    4.4650 H         1 UNK         0.0771 
    130 H130       33.7900   29.5860    5.2158 H         1 UNK         0.2980 
    131 H131       35.2536   27.0589    5.2779 H         1 UNK         0.0545 
    132 H132       34.5723   29.2881    7.8180 H         1 UNK         0.3459 
    133 H133       34.6963   28.1271    9.1164 H         1 UNK         0.3459 
    134 H134       32.9780   26.0164    5.4519 H         1 UNK         0.0616 
    135 H135       32.2622   27.6035    5.5566 H         1 UNK         0.0616 
    136 H136       33.6619   25.4406    1.7887 H         1 UNK         0.0634 
    137 H137       34.3393   25.1294    3.3692 H         1 UNK         0.0634 
@<TRIPOS>BOND
     1    1    2 1    
     2    1   72 1    
     3    1   73 1    
     4    1   74 1    
     5    2    3 2    
     6    2    4 am   BACKBONE|DICT|INTERRES
     7    4    5 1    
     8    4   75 1    
     9    5    6 1    
    10    5   35 1    
    11    5   76 1    
    12    6    7 1    
    13    6   77 1    
    14    6   78 1    
    15    7    8 1    
    16    8    9 1    
    17    8   79 1    
    18    8   80 1    
    19    9   10 ar   
    20    9   14 ar   
    21   10   11 ar   
    22   10   81 1    
    23   11   12 ar   
    24   11   71 1    
    25   12   13 ar   
    26   12   82 1    
    27   13   14 ar   
    28   13   15 1    
    29   14   83 1    
    30   15   16 1    
    31   15   84 1    
    32   15   85 1    
    33   16   17 1    
    34   17   18 1    
    35   17   86 1    
    36   17   87 1    
    37   18   19 1    
    38   18   37 1    
    39   18   88 1    
    40   19   20 am   BACKBONE|DICT|INTERRES
    41   19   89 1    
    42   20   21 2    
    43   20   22 1    
    44   22   23 1    
    45   22   24 1    
    46   22   90 1    
    47   23   91 1    
    48   23   92 1    
    49   23   93 1    
    50   24   25 am   BACKBONE|DICT|INTERRES
    51   24   94 1    
    52   25   26 2    
    53   25   27 1    
    54   27   28 1    
    55   27   29 1    
    56   27   95 1    
    57   28   96 1    
    58   28   97 1    
    59   28   98 1    
    60   29   30 am   BACKBONE|DICT|INTERRES
    61   29   99 1    
    62   30   31 2    
    63   30   32 1    
    64   32   33 1    
    65   32   34 1    
    66   32  100 1    
    67   33  101 1    
    68   33  102 1    
    69   33  103 1    
    70   34   35 am   BACKBONE|DICT|INTERRES
    71   34  104 1    
    72   35   36 2    
    73   37   38 2    
    74   37   39 am   BACKBONE|DICT|INTERRES
    75   39   40 1    
    76   39  105 1    
    77   40   41 1    
    78   40   42 1    
    79   40  106 1    
    80   41  107 1    
    81   41  108 1    
    82   41  109 1    
    83   42   43 2    
    84   42   44 am   BACKBONE|DICT|INTERRES
    85   44   45 1    
    86   44  110 1    
    87   45   46 1    
    88   45   47 1    
    89   45  111 1    
    90   46  112 1    
    91   46  113 1    
    92   46  114 1    
    93   47   48 2    
    94   47   49 am   BACKBONE|DICT|INTERRES
    95   49   50 1    
    96   49  115 1    
    97   50   51 1    
    98   50   52 1    
    99   50  116 1    
   100   51  117 1    
   101   51  118 1    
   102   51  119 1    
   103   52   53 2    
   104   52   54 am   BACKBONE|DICT|INTERRES
   105   54   55 1    
   106   54  120 1    
   107   55   56 1    
   108   55   57 1    
   109   55  121 1    
   110   56  122 1    
   111   56  123 1    
   112   56  124 1    
   113   57   58 2    
   114   57   59 am   BACKBONE|DICT|INTERRES
   115   59   60 1    
   116   59  125 1    
   117   60   61 1    
   118   60   62 1    
   119   60  126 1    
   120   61  127 1    
   121   61  128 1    
   122   61  129 1    
   123   62   63 2    
   124   62   64 am   BACKBONE|DICT|INTERRES
   125   64   65 1    
   126   64  130 1    
   127   65   66 1    
   128   65   69 1    
   129   65  131 1    
   130   66   67 am   BACKBONE|DICT|INTERRES
   131   66   68 2    
   132   67  132 1    
   133   67  133 1    
   134   69   70 1    
   135   69  134 1    
   136   69  135 1    
   137   70   71 1    
   138   71  136 1    
   139   71  137 1    
@<TRIPOS>SUBSTRUCTURE
     1 UNK         1 GROUP             0       ****    0 ROOT    
