@<TRIPOS>MOLECULE
3R136
137   139    1
SMALL
USER_CHARGES


@<TRIPOS>ATOM
      1 CA         29.0366   17.5687    1.2484 C.3       0 UNK        -0.1979 
      2 C          28.8112   18.5136    0.0772 C.2       0 UNK         0.4864 
      3 O          28.0842   18.1690   -0.8562 O.2       0 UNK        -0.5359 
      4 N          29.4365   19.6968    0.1146 N.am      1 UNK        -0.4318 
      5 CA         29.2847   20.7649   -0.8775 C.3       1 UNK         0.0824 
      6 C6         30.4335   21.8053   -0.7969 C.3       12 UNK        -0.0944 
      7 S7         30.8462   22.3739    0.8915 S.3       12 UNK        -0.2672 
      8 C8         30.1390   24.0465    0.8912 C.3       12 UNK         0.0333 
      9 C9         30.5524   24.8106    2.1385 C.ar      12 UNK        -0.0807 
     10 C10        31.7252   25.5707    2.1349 C.ar      12 UNK        -0.0894 
     11 C11        32.1062   26.2931    3.2690 C.ar      12 UNK        -0.0804 
     12 C12        31.3106   26.2423    4.4174 C.ar      12 UNK        -0.0824 
     13 C13        30.1439   25.4719    4.4389 C.ar      12 UNK        -0.0762 
     14 C14        29.7664   24.7621    3.2938 C.ar      12 UNK        -0.0782 
     15 C15        29.3026   25.3875    5.7047 C.3       12 UNK         0.0230 
     16 S16        27.7157   26.2630    5.5369 S.3       12 UNK        -0.2608 
     17 C17        28.2398   28.0121    5.5094 C.3       12 UNK        -0.0989 
     18 CA         28.3493   28.5893    4.0762 C.3       5 UNK         0.0716 
     19 N          27.1497   28.3354    3.2694 N.am      5 UNK        -0.4135 
     20 C          27.0361   28.6074    1.9644 C.2       4 UNK         0.5031 
     21 O          27.8845   29.2174    1.3099 O.2       4 UNK        -0.5229 
     22 CA         25.7407   28.1564    1.2760 C.3       4 UNK         0.0329 
     23 CB         24.7899   29.3493    1.0841 C.3       4 UNK        -0.2001 
     24 N          26.0398   27.5568   -0.0244 N.am      4 UNK        -0.4303 
     25 C          26.6350   26.3677   -0.1817 C.2       3 UNK         0.5044 
     26 O          26.9095   25.6062    0.7485 O.2       3 UNK        -0.5152 
     27 CA         27.0200   25.9895   -1.6224 C.3       3 UNK         0.0319 
     28 CB         28.4299   26.5093   -1.9504 C.3       3 UNK        -0.2001 
     29 N          26.9706   24.5429   -1.8541 N.am      3 UNK        -0.4354 
     30 C          25.8473   23.8102   -1.8477 C.2       2 UNK         0.4964 
     31 O          24.7243   24.2876   -1.6761 O.2       2 UNK        -0.5047 
     32 CA         25.9734   22.2991   -2.1133 C.3       2 UNK         0.0288 
     33 CB         25.4667   21.9626   -3.5267 C.3       2 UNK        -0.2113 
     34 N          27.3340   21.7721   -1.9648 N.am      2 UNK        -0.4145 
     35 C          27.8869   21.4166   -0.7967 C.2       1 UNK         0.5006 
     36 O          27.3397   21.5756    0.2977 O.2       1 UNK        -0.5103 
     37 C          28.7389   30.0797    4.1238 C.2       5 UNK         0.5055 
     38 O          29.9290   30.3912    4.1096 O.2       5 UNK        -0.5220 
     39 N          27.7375   30.9718    4.1510 N.am      6 UNK        -0.4450 
     40 CA         27.9229   32.4242    4.1120 C.3       6 UNK         0.0367 
     41 CB         26.5959   33.1249    4.4446 C.3       6 UNK        -0.1929 
     42 C          28.4727   32.9144    2.7622 C.2       6 UNK         0.5070 
     43 O          29.3680   33.7584    2.7461 O.2       6 UNK        -0.5237 
     44 N          27.9593   32.3530    1.6575 N.am      7 UNK        -0.4739 
     45 CA         28.4196   32.6369    0.2932 C.3       7 UNK         0.0276 
     46 CB         27.4106   32.0764   -0.7222 C.3       7 UNK        -0.1927 
     47 C          29.8266   32.0768    0.0294 C.2       7 UNK         0.5013 
     48 O          30.6252   32.7251   -0.6469 O.2       7 UNK        -0.5193 
     49 N          30.1132   30.9051    0.6108 N.am      8 UNK        -0.4253 
     50 CA         31.4219   30.2499    0.6103 C.3       8 UNK         0.0242 
     51 CB         31.2097   28.7508    0.8642 C.3       8 UNK        -0.2000 
     52 C          32.4271   30.8565    1.6157 C.2       8 UNK         0.4948 
     53 O          33.5583   30.3745    1.6843 O.2       8 UNK        -0.5275 
     54 N          32.0149   31.8958    2.3593 N.am      9 UNK        -0.4246 
     55 CA         32.7973   32.6947    3.3089 C.3       9 UNK         0.0261 
     56 CB         33.9238   33.4620    2.5833 C.3       9 UNK        -0.1959 
     57 C          33.2981   31.9039    4.5331 C.2       9 UNK         0.5033 
     58 O          34.4264   32.1200    4.9816 O.2       9 UNK        -0.5390 
     59 N          32.4463   31.0158    5.0658 N.am      10 UNK        -0.4215 
     60 CA         32.5806   30.2105    6.2907 C.3       10 UNK         0.0240 
     61 CB         32.6977   31.1074    7.5382 C.3       10 UNK        -0.1982 
     62 C          33.6877   29.1402    6.2771 C.2       10 UNK         0.4970 
     63 O          33.4505   28.0525    6.8007 O.2       10 UNK        -0.4916 
     64 N          34.8471   29.4620    5.6897 N.am      11 UNK        -0.4279 
     65 CA         36.0374   28.6225    5.4570 C.3       11 UNK         0.1003 
     66 C          36.6507   27.8911    6.6920 C.2       11 UNK         0.5709 
     67 N          36.3499   28.3006    7.9183 N.am      11 UNK        -0.7358 
     68 O          37.4538   26.9726    6.5424 O.2       11 UNK        -0.4999 
     69 C69        35.9301   27.7525    4.1685 C.3       12 UNK        -0.0954 
     70 S70        34.7031   26.4025    4.2206 S.3       12 UNK        -0.2268 
     71 C71        33.3621   27.1494    3.2472 C.3       12 UNK         0.0203 
     72 H72        29.4702   16.6326    0.8978 H         1 UNK         0.0888 
     73 H73        29.7086   17.9958    1.9928 H         1 UNK         0.0888 
     74 H74        28.0887   17.3444    1.7367 H         1 UNK         0.0888 
     75 H75        29.9965   19.9447    0.9185 H         1 UNK         0.3017 
     76 H76        29.3562   20.2898   -1.8589 H         1 UNK         0.0873 
     77 H77        30.2368   22.6607   -1.4460 H         1 UNK         0.0745 
     78 H78        31.3405   21.3510   -1.1991 H         1 UNK         0.0745 
     79 H79        29.0520   23.9813    0.8253 H         1 UNK         0.0705 
     80 H80        30.4766   24.5828    0.0039 H         1 UNK         0.0705 
     81 H81        32.3372   25.6056    1.2439 H         1 UNK         0.1334 
     82 H82        31.6095   26.7965    5.2966 H         1 UNK         0.1417 
     83 H83        28.8600   24.1715    3.3018 H         1 UNK         0.1562 
     84 H84        29.8467   25.7796    6.5655 H         1 UNK         0.0748 
     85 H85        29.1011   24.3386    5.9269 H         1 UNK         0.0748 
     86 H86        29.1920   28.1110    6.0347 H         1 UNK         0.0940 
     87 H87        27.5143   28.5796    6.0959 H         1 UNK         0.0940 
     88 H88        29.1682   28.0720    3.5730 H         1 UNK         0.0703 
     89 H89        26.4154   27.8163    3.7291 H         1 UNK         0.3081 
     90 H90        25.2426   27.4079    1.8962 H         1 UNK         0.0719 
     91 H91        23.8552   29.0390    0.6164 H         1 UNK         0.0809 
     92 H92        24.5347   29.8046    2.0419 H         1 UNK         0.0809 
     93 H93        25.2333   30.1268    0.4612 H         1 UNK         0.0809 
     94 H94        25.8895   28.1388   -0.8352 H         1 UNK         0.2990 
     95 H95        26.3102   26.4601   -2.3064 H         1 UNK         0.0690 
     96 H96        28.7080   26.2870   -2.9808 H         1 UNK         0.0788 
     97 H97        29.1836   26.0734   -1.2953 H         1 UNK         0.0788 
     98 H98        28.4855   27.5921   -1.8273 H         1 UNK         0.0788 
     99 H99        27.8511   24.0703   -1.9858 H         1 UNK         0.2993 
    100 H100       25.3238   21.7947   -1.3940 H         1 UNK         0.0949 
    101 H101       25.4746   20.8871   -3.7056 H         1 UNK         0.0767 
    102 H102       24.4396   22.3032   -3.6660 H         1 UNK         0.0767 
    103 H103       26.0744   22.4374   -4.2982 H         1 UNK         0.0767 
    104 H104       27.8470   21.6092   -2.8199 H         1 UNK         0.3013 
    105 H105       26.7880   30.6293    4.1676 H         1 UNK         0.3121 
    106 H106       28.6506   32.6914    4.8818 H         1 UNK         0.0774 
    107 H107       26.7167   34.2091    4.4379 H         1 UNK         0.0815 
    108 H108       25.8143   32.8803    3.7243 H         1 UNK         0.0815 
    109 H109       26.2384   32.8475    5.4364 H         1 UNK         0.0815 
    110 H110       27.2678   31.6247    1.7606 H         1 UNK         0.2987 
    111 H111       28.4652   33.7213    0.1685 H         1 UNK         0.0949 
    112 H112       27.3364   30.9901   -0.6642 H         1 UNK         0.0806 
    113 H113       26.4151   32.4917   -0.5651 H         1 UNK         0.0806 
    114 H114       27.7079   32.3261   -1.7416 H         1 UNK         0.0806 
    115 H115       29.3592   30.4089    1.0809 H         1 UNK         0.3010 
    116 H116       31.8584   30.3641   -0.3840 H         1 UNK         0.0829 
    117 H117       30.4779   28.3260    0.1766 H         1 UNK         0.0813 
    118 H118       32.1392   28.2007    0.7225 H         1 UNK         0.0813 
    119 H119       30.8604   28.5634    1.8798 H         1 UNK         0.0813 
    120 H120       31.0524   32.1884    2.2502 H         1 UNK         0.3038 
    121 H121       32.1050   33.4388    3.7056 H         1 UNK         0.0769 
    122 H122       34.4143   34.1663    3.2563 H         1 UNK         0.0811 
    123 H123       33.5344   34.0368    1.7430 H         1 UNK         0.0811 
    124 H124       34.6924   32.7885    2.2028 H         1 UNK         0.0811 
    125 H125       31.5550   30.8796    4.5843 H         1 UNK         0.3204 
    126 H126       31.6374   29.6673    6.3718 H         1 UNK         0.0748 
    127 H127       32.6970   30.5085    8.4500 H         1 UNK         0.0771 
    128 H128       33.6176   31.6929    7.5359 H         1 UNK         0.0771 
    129 H129       31.8593   31.8007    7.6064 H         1 UNK         0.0771 
    130 H130       34.9160   30.4186    5.3474 H         1 UNK         0.2980 
    131 H131       36.8068   29.3606    5.2282 H         1 UNK         0.0545 
    132 H132       35.6886   29.0471    8.0572 H         1 UNK         0.3459 
    133 H133       36.7628   27.8340    8.7102 H         1 UNK         0.3459 
    134 H134       35.7088   28.3980    3.3169 H         1 UNK         0.0616 
    135 H135       36.8991   27.3068    3.9380 H         1 UNK         0.0616 
    136 H136       33.7152   27.2940    2.2255 H         1 UNK         0.0634 
    137 H137       33.1263   28.1421    3.6313 H         1 UNK         0.0634 
@<TRIPOS>BOND
     1    1    2 1    
     2    1   72 1    
     3    1   73 1    
     4    1   74 1    
     5    2    3 2    
     6    2    4 am   BACKBONE|DICT|INTERRES
     7    4    5 1    
     8    4   75 1    
     9    5    6 1    
    10    5   35 1    
    11    5   76 1    
    12    6    7 1    
    13    6   77 1    
    14    6   78 1    
    15    7    8 1    
    16    8    9 1    
    17    8   79 1    
    18    8   80 1    
    19    9   10 ar   
    20    9   14 ar   
    21   10   11 ar   
    22   10   81 1    
    23   11   12 ar   
    24   11   71 1    
    25   12   13 ar   
    26   12   82 1    
    27   13   14 ar   
    28   13   15 1    
    29   14   83 1    
    30   15   16 1    
    31   15   84 1    
    32   15   85 1    
    33   16   17 1    
    34   17   18 1    
    35   17   86 1    
    36   17   87 1    
    37   18   19 1    
    38   18   37 1    
    39   18   88 1    
    40   19   20 am   BACKBONE|DICT|INTERRES
    41   19   89 1    
    42   20   21 2    
    43   20   22 1    
    44   22   23 1    
    45   22   24 1    
    46   22   90 1    
    47   23   91 1    
    48   23   92 1    
    49   23   93 1    
    50   24   25 am   BACKBONE|DICT|INTERRES
    51   24   94 1    
    52   25   26 2    
    53   25   27 1    
    54   27   28 1    
    55   27   29 1    
    56   27   95 1    
    57   28   96 1    
    58   28   97 1    
    59   28   98 1    
    60   29   30 am   BACKBONE|DICT|INTERRES
    61   29   99 1    
    62   30   31 2    
    63   30   32 1    
    64   32   33 1    
    65   32   34 1    
    66   32  100 1    
    67   33  101 1    
    68   33  102 1    
    69   33  103 1    
    70   34   35 am   BACKBONE|DICT|INTERRES
    71   34  104 1    
    72   35   36 2    
    73   37   38 2    
    74   37   39 am   BACKBONE|DICT|INTERRES
    75   39   40 1    
    76   39  105 1    
    77   40   41 1    
    78   40   42 1    
    79   40  106 1    
    80   41  107 1    
    81   41  108 1    
    82   41  109 1    
    83   42   43 2    
    84   42   44 am   BACKBONE|DICT|INTERRES
    85   44   45 1    
    86   44  110 1    
    87   45   46 1    
    88   45   47 1    
    89   45  111 1    
    90   46  112 1    
    91   46  113 1    
    92   46  114 1    
    93   47   48 2    
    94   47   49 am   BACKBONE|DICT|INTERRES
    95   49   50 1    
    96   49  115 1    
    97   50   51 1    
    98   50   52 1    
    99   50  116 1    
   100   51  117 1    
   101   51  118 1    
   102   51  119 1    
   103   52   53 2    
   104   52   54 am   BACKBONE|DICT|INTERRES
   105   54   55 1    
   106   54  120 1    
   107   55   56 1    
   108   55   57 1    
   109   55  121 1    
   110   56  122 1    
   111   56  123 1    
   112   56  124 1    
   113   57   58 2    
   114   57   59 am   BACKBONE|DICT|INTERRES
   115   59   60 1    
   116   59  125 1    
   117   60   61 1    
   118   60   62 1    
   119   60  126 1    
   120   61  127 1    
   121   61  128 1    
   122   61  129 1    
   123   62   63 2    
   124   62   64 am   BACKBONE|DICT|INTERRES
   125   64   65 1    
   126   64  130 1    
   127   65   66 1    
   128   65   69 1    
   129   65  131 1    
   130   66   67 am   BACKBONE|DICT|INTERRES
   131   66   68 2    
   132   67  132 1    
   133   67  133 1    
   134   69   70 1    
   135   69  134 1    
   136   69  135 1    
   137   70   71 1    
   138   71  136 1    
   139   71  137 1    
@<TRIPOS>SUBSTRUCTURE
     1 UNK         1 GROUP             0       ****    0 ROOT    
