@<TRIPOS>MOLECULE
3R136
137   139    1
SMALL
USER_CHARGES


@<TRIPOS>ATOM
      1 CA         26.3692   23.5507   -2.5346 C.3       0 UNK        -0.1979 
      2 C          27.3419   23.9032   -1.4200 C.2       0 UNK         0.4864 
      3 O          27.3581   25.0554   -0.9798 O.2       0 UNK        -0.5359 
      4 N          28.1435   22.9189   -0.9768 N.am      1 UNK        -0.4318 
      5 CA         29.1500   23.0198    0.0888 C.3       1 UNK         0.0824 
      6 C6         29.9229   21.6949    0.3147 C.3       12 UNK        -0.0944 
      7 S7         31.1764   21.4316   -0.9830 S.3       12 UNK        -0.2672 
      8 C8         32.7302   21.7575   -0.0785 C.3       12 UNK         0.0333 
      9 C9         32.8073   23.1825    0.4582 C.ar      12 UNK        -0.0807 
     10 C10        32.6997   23.4313    1.8318 C.ar      12 UNK        -0.0894 
     11 C11        32.7456   24.7380    2.3311 C.ar      12 UNK        -0.0804 
     12 C12        32.8844   25.7997    1.4303 C.ar      12 UNK        -0.0824 
     13 C13        33.0069   25.5671    0.0582 C.ar      12 UNK        -0.0762 
     14 C14        32.9830   24.2544   -0.4216 C.ar      12 UNK        -0.0782 
     15 C15        33.1354   26.7457   -0.8981 C.3       12 UNK         0.0230 
     16 S16        31.8029   26.8225   -2.1420 S.3       12 UNK        -0.2608 
     17 C17        30.2868   26.5575   -1.1614 C.3       12 UNK        -0.0989 
     18 CA         29.6854   27.8537   -0.5728 C.3       5 UNK         0.0716 
     19 N          28.2213   27.8586   -0.6220 N.am      5 UNK        -0.4135 
     20 C          27.4831   28.9646   -0.4474 C.2       4 UNK         0.5031 
     21 O          27.9616   30.0783   -0.2301 O.2       4 UNK        -0.5229 
     22 CA         25.9548   28.8159   -0.5066 C.3       4 UNK         0.0329 
     23 CB         25.4637   28.9039   -1.9603 C.3       4 UNK        -0.2001 
     24 N          25.4427   27.5890    0.1057 N.am      4 UNK        -0.4303 
     25 C          25.6107   27.2281    1.3847 C.2       3 UNK         0.5044 
     26 O          26.2859   27.8684    2.1926 O.2       3 UNK        -0.5152 
     27 CA         24.9142   25.9399    1.8467 C.3       3 UNK         0.0319 
     28 CB         23.9884   25.2921    0.7912 C.3       3 UNK        -0.2001 
     29 N          25.9462   24.9991    2.2581 N.am      3 UNK        -0.4354 
     30 C          25.7960   23.9638    3.0885 C.2       2 UNK         0.4964 
     31 O          24.7286   23.6791    3.6351 O.2       2 UNK        -0.5047 
     32 CA         27.0475   23.0908    3.3292 C.3       2 UNK         0.0288 
     33 CB         26.7304   21.7954    4.1006 C.3       2 UNK        -0.2113 
     34 N          27.7405   22.7406    2.0832 N.am      2 UNK        -0.4145 
     35 C          28.5464   23.5603    1.3945 C.2       1 UNK         0.5006 
     36 O          28.7695   24.7249    1.7225 O.2       1 UNK        -0.5103 
     37 C          30.1933   28.1359    0.8552 C.2       5 UNK         0.5055 
     38 O          31.0662   28.9869    1.0234 O.2       5 UNK        -0.5220 
     39 N          29.6058   27.4644    1.8594 N.am      6 UNK        -0.4450 
     40 CA         29.8601   27.6907    3.2851 C.3       6 UNK         0.0367 
     41 CB         29.0450   26.7131    4.1494 C.3       6 UNK        -0.1929 
     42 C          29.5740   29.1290    3.7259 C.2       6 UNK         0.5070 
     43 O          30.3756   29.6941    4.4684 O.2       6 UNK        -0.5237 
     44 N          28.4595   29.6959    3.2441 N.am      7 UNK        -0.4739 
     45 CA         28.0722   31.0873    3.4800 C.3       7 UNK         0.0276 
     46 CB         26.6455   31.3203    2.9581 C.3       7 UNK        -0.1927 
     47 C          29.0565   32.0944    2.8603 C.2       7 UNK         0.5013 
     48 O          29.3869   33.0867    3.5099 O.2       7 UNK        -0.5193 
     49 N          29.5173   31.8167    1.6321 N.am      8 UNK        -0.4253 
     50 CA         30.5008   32.6292    0.9133 C.3       8 UNK         0.0242 
     51 CB         30.5334   32.2139   -0.5668 C.3       8 UNK        -0.2000 
     52 C          31.9066   32.5531    1.5324 C.2       8 UNK         0.4948 
     53 O          32.5423   33.5921    1.7155 O.2       8 UNK        -0.5275 
     54 N          32.3692   31.3328    1.8360 N.am      9 UNK        -0.4246 
     55 CA         33.6949   31.0655    2.4016 C.3       9 UNK         0.0261 
     56 CB         34.0585   29.5947    2.1500 C.3       9 UNK        -0.1959 
     57 C          33.8077   31.3810    3.9023 C.2       9 UNK         0.5033 
     58 O          34.9269   31.5644    4.3833 O.2       9 UNK        -0.5390 
     59 N          32.6680   31.4104    4.6087 N.am      10 UNK        -0.4215 
     60 CA         32.5203   31.5212    6.0632 C.3       10 UNK         0.0240 
     61 CB         33.0603   32.8687    6.5904 C.3       10 UNK        -0.1982 
     62 C          33.1086   30.2920    6.7819 C.2       10 UNK         0.4970 
     63 O          33.9278   30.4404    7.6914 O.2       10 UNK        -0.4916 
     64 N          32.6849   29.0971    6.3444 N.am      11 UNK        -0.4279 
     65 CA         33.0504   27.8066    6.9535 C.3       11 UNK         0.1003 
     66 C          32.5306   27.6740    8.4126 C.2       11 UNK         0.5709 
     67 N          33.2884   27.0232    9.2850 N.am      11 UNK        -0.7358 
     68 O          31.4322   28.1153    8.7471 O.2       11 UNK        -0.4999 
     69 C69        32.5680   26.6002    6.1054 C.3       12 UNK        -0.0954 
     70 S70        33.3738   26.4905    4.4757 S.3       12 UNK        -0.2268 
     71 C71        32.5833   24.9702    3.8345 C.3       12 UNK         0.0203 
     72 H72        26.5341   24.2013   -3.3930 H         1 UNK         0.0888 
     73 H73        26.4818   22.5184   -2.8650 H         1 UNK         0.0888 
     74 H74        25.3435   23.6889   -2.1945 H         1 UNK         0.0888 
     75 H75        28.0744   22.0094   -1.4104 H         1 UNK         0.3017 
     76 H76        29.8754   23.7615   -0.2370 H         1 UNK         0.0873 
     77 H77        30.4242   21.6848    1.2845 H         1 UNK         0.0745 
     78 H78        29.2430   20.8413    0.3247 H         1 UNK         0.0745 
     79 H79        32.8320   21.0321    0.7302 H         1 UNK         0.0705 
     80 H80        33.5714   21.5821   -0.7507 H         1 UNK         0.0705 
     81 H81        32.5672   22.6041    2.5158 H         1 UNK         0.1334 
     82 H82        32.8825   26.8170    1.7918 H         1 UNK         0.1417 
     83 H83        33.0646   24.0697   -1.4844 H         1 UNK         0.1562 
     84 H84        34.0955   26.6846   -1.4120 H         1 UNK         0.0748 
     85 H85        33.1429   27.6888   -0.3509 H         1 UNK         0.0748 
     86 H86        30.4492   25.8127   -0.3864 H         1 UNK         0.0940 
     87 H87        29.5808   26.0991   -1.8545 H         1 UNK         0.0940 
     88 H88        30.0115   28.6894   -1.1965 H         1 UNK         0.0703 
     89 H89        27.7629   26.9613   -0.7647 H         1 UNK         0.3081 
     90 H90        25.5274   29.6545    0.0469 H         1 UNK         0.0719 
     91 H91        25.8172   29.8195   -2.4368 H         1 UNK         0.0809 
     92 H92        25.8219   28.0652   -2.5590 H         1 UNK         0.0809 
     93 H93        24.3748   28.9143   -2.0124 H         1 UNK         0.0809 
     94 H94        24.9026   26.9786   -0.4898 H         1 UNK         0.2990 
     95 H95        24.3141   26.2067    2.7190 H         1 UNK         0.0690 
     96 H96        23.2153   25.9866    0.4597 H         1 UNK         0.0788 
     97 H97        23.4725   24.4242    1.2022 H         1 UNK         0.0788 
     98 H98        24.5425   24.9556   -0.0856 H         1 UNK         0.0788 
     99 H99        26.8758   25.1710    1.8850 H         1 UNK         0.2993 
    100 H100       27.7257   23.6834    3.9472 H         1 UNK         0.0949 
    101 H101       26.2750   22.0156    5.0672 H         1 UNK         0.0767 
    102 H102       26.0376   21.1576    3.5501 H         1 UNK         0.0767 
    103 H103       27.6348   21.2192    4.2970 H         1 UNK         0.0767 
    104 H104       27.5539   21.8211    1.7105 H         1 UNK         0.3013 
    105 H105       28.9667   26.7088    1.6367 H         1 UNK         0.3121 
    106 H106       30.9196   27.5062    3.4553 H         1 UNK         0.0774 
    107 H107       29.3614   25.6833    4.0012 H         1 UNK         0.0815 
    108 H108       29.1666   26.9316    5.2111 H         1 UNK         0.0815 
    109 H109       27.9790   26.7689    3.9294 H         1 UNK         0.0815 
    110 H110       27.8319   29.1277    2.6826 H         1 UNK         0.2987 
    111 H111       28.0712   31.2509    4.5599 H         1 UNK         0.0949 
    112 H112       26.5778   31.1639    1.8813 H         1 UNK         0.0806 
    113 H113       25.9335   30.6483    3.4377 H         1 UNK         0.0806 
    114 H114       26.3178   32.3407    3.1612 H         1 UNK         0.0806 
    115 H115       29.1538   31.0018    1.1471 H         1 UNK         0.3010 
    116 H116       30.1743   33.6703    0.9627 H         1 UNK         0.0829 
    117 H117       30.8189   31.1684   -0.6886 H         1 UNK         0.0813 
    118 H118       29.5588   32.3484   -1.0364 H         1 UNK         0.0813 
    119 H119       31.2498   32.8164   -1.1267 H         1 UNK         0.0813 
    120 H120       31.7982   30.5182    1.6072 H         1 UNK         0.3038 
    121 H121       34.4238   31.6895    1.8799 H         1 UNK         0.0769 
    122 H122       33.3506   28.9260    2.6395 H         1 UNK         0.0811 
    123 H123       35.0508   29.3605    2.5378 H         1 UNK         0.0811 
    124 H124       34.0627   29.3647    1.0853 H         1 UNK         0.0811 
    125 H125       31.8128   31.1649    4.1214 H         1 UNK         0.3204 
    126 H126       31.4473   31.5049    6.2607 H         1 UNK         0.0748 
    127 H127       32.8298   32.9904    7.6494 H         1 UNK         0.0771 
    128 H128       34.1426   32.9473    6.4851 H         1 UNK         0.0771 
    129 H129       32.6098   33.7087    6.0616 H         1 UNK         0.0771 
    130 H130       31.9771   29.0761    5.6193 H         1 UNK         0.2980 
    131 H131       34.1413   27.7745    6.9907 H         1 UNK         0.0545 
    132 H132       34.1848   26.6462    9.0187 H         1 UNK         0.3459 
    133 H133       32.9606   26.9135   10.2319 H         1 UNK         0.3459 
    134 H134       31.4874   26.6449    5.9632 H         1 UNK         0.0616 
    135 H135       32.7703   25.6622    6.6265 H         1 UNK         0.0616 
    136 H136       31.5181   24.9976    4.0567 H         1 UNK         0.0634 
    137 H137       32.9915   24.1221    4.3863 H         1 UNK         0.0634 
@<TRIPOS>BOND
     1    1    2 1    
     2    1   72 1    
     3    1   73 1    
     4    1   74 1    
     5    2    3 2    
     6    2    4 am   BACKBONE|DICT|INTERRES
     7    4    5 1    
     8    4   75 1    
     9    5    6 1    
    10    5   35 1    
    11    5   76 1    
    12    6    7 1    
    13    6   77 1    
    14    6   78 1    
    15    7    8 1    
    16    8    9 1    
    17    8   79 1    
    18    8   80 1    
    19    9   10 ar   
    20    9   14 ar   
    21   10   11 ar   
    22   10   81 1    
    23   11   12 ar   
    24   11   71 1    
    25   12   13 ar   
    26   12   82 1    
    27   13   14 ar   
    28   13   15 1    
    29   14   83 1    
    30   15   16 1    
    31   15   84 1    
    32   15   85 1    
    33   16   17 1    
    34   17   18 1    
    35   17   86 1    
    36   17   87 1    
    37   18   19 1    
    38   18   37 1    
    39   18   88 1    
    40   19   20 am   BACKBONE|DICT|INTERRES
    41   19   89 1    
    42   20   21 2    
    43   20   22 1    
    44   22   23 1    
    45   22   24 1    
    46   22   90 1    
    47   23   91 1    
    48   23   92 1    
    49   23   93 1    
    50   24   25 am   BACKBONE|DICT|INTERRES
    51   24   94 1    
    52   25   26 2    
    53   25   27 1    
    54   27   28 1    
    55   27   29 1    
    56   27   95 1    
    57   28   96 1    
    58   28   97 1    
    59   28   98 1    
    60   29   30 am   BACKBONE|DICT|INTERRES
    61   29   99 1    
    62   30   31 2    
    63   30   32 1    
    64   32   33 1    
    65   32   34 1    
    66   32  100 1    
    67   33  101 1    
    68   33  102 1    
    69   33  103 1    
    70   34   35 am   BACKBONE|DICT|INTERRES
    71   34  104 1    
    72   35   36 2    
    73   37   38 2    
    74   37   39 am   BACKBONE|DICT|INTERRES
    75   39   40 1    
    76   39  105 1    
    77   40   41 1    
    78   40   42 1    
    79   40  106 1    
    80   41  107 1    
    81   41  108 1    
    82   41  109 1    
    83   42   43 2    
    84   42   44 am   BACKBONE|DICT|INTERRES
    85   44   45 1    
    86   44  110 1    
    87   45   46 1    
    88   45   47 1    
    89   45  111 1    
    90   46  112 1    
    91   46  113 1    
    92   46  114 1    
    93   47   48 2    
    94   47   49 am   BACKBONE|DICT|INTERRES
    95   49   50 1    
    96   49  115 1    
    97   50   51 1    
    98   50   52 1    
    99   50  116 1    
   100   51  117 1    
   101   51  118 1    
   102   51  119 1    
   103   52   53 2    
   104   52   54 am   BACKBONE|DICT|INTERRES
   105   54   55 1    
   106   54  120 1    
   107   55   56 1    
   108   55   57 1    
   109   55  121 1    
   110   56  122 1    
   111   56  123 1    
   112   56  124 1    
   113   57   58 2    
   114   57   59 am   BACKBONE|DICT|INTERRES
   115   59   60 1    
   116   59  125 1    
   117   60   61 1    
   118   60   62 1    
   119   60  126 1    
   120   61  127 1    
   121   61  128 1    
   122   61  129 1    
   123   62   63 2    
   124   62   64 am   BACKBONE|DICT|INTERRES
   125   64   65 1    
   126   64  130 1    
   127   65   66 1    
   128   65   69 1    
   129   65  131 1    
   130   66   67 am   BACKBONE|DICT|INTERRES
   131   66   68 2    
   132   67  132 1    
   133   67  133 1    
   134   69   70 1    
   135   69  134 1    
   136   69  135 1    
   137   70   71 1    
   138   71  136 1    
   139   71  137 1    
@<TRIPOS>SUBSTRUCTURE
     1 UNK         1 GROUP             0       ****    0 ROOT    
