@<TRIPOS>MOLECULE
3R136
137   139    1
SMALL
USER_CHARGES


@<TRIPOS>ATOM
      1 CA         25.6781   25.4557    5.1117 C.3       0 UNK        -0.1979 
      2 C          26.2901   24.2330    4.4427 C.2       0 UNK         0.4864 
      3 O          26.3379   23.1611    5.0472 O.2       0 UNK        -0.5359 
      4 N          26.7608   24.3904    3.2021 N.am      1 UNK        -0.4318 
      5 CA         27.3861   23.3562    2.3842 C.3       1 UNK         0.0824 
      6 C6         28.8573   23.1013    2.8004 C.3       12 UNK        -0.0944 
      7 S7         29.6300   21.7069    1.9137 S.3       12 UNK        -0.2672 
      8 C8         31.3644   21.8421    2.4618 C.3       12 UNK         0.0333 
      9 C9         32.0041   23.1903    2.1411 C.ar      12 UNK        -0.0807 
     10 C10        32.6548   23.9075    3.1502 C.ar      12 UNK        -0.0894 
     11 C11        33.2632   25.1347    2.8725 C.ar      12 UNK        -0.0804 
     12 C12        33.2112   25.6493    1.5734 C.ar      12 UNK        -0.0824 
     13 C13        32.5789   24.9368    0.5495 C.ar      12 UNK        -0.0762 
     14 C14        31.9765   23.7079    0.8408 C.ar      12 UNK        -0.0782 
     15 C15        32.5926   25.4655   -0.8807 C.3       12 UNK         0.0230 
     16 S16        31.8419   27.1178   -1.0456 S.3       12 UNK        -0.2608 
     17 C17        30.0942   26.7571   -0.6777 C.3       12 UNK        -0.0989 
     18 CA         29.3530   27.9424   -0.0141 C.3       5 UNK         0.0716 
     19 N          27.9104   27.7048    0.0115 N.am      5 UNK        -0.4135 
     20 C          26.9670   28.6061    0.3108 C.2       4 UNK         0.5031 
     21 O          27.2177   29.7525    0.6847 O.2       4 UNK        -0.5229 
     22 CA         25.5021   28.1330    0.1885 C.3       4 UNK         0.0329 
     23 CB         24.5014   29.3051    0.0959 C.3       4 UNK        -0.2001 
     24 N          25.2881   27.1849   -0.9156 N.am      4 UNK        -0.4303 
     25 C          25.5040   27.3917   -2.2246 C.2       3 UNK         0.5044 
     26 O          25.9097   28.4555   -2.6958 O.2       3 UNK        -0.5152 
     27 CA         25.2531   26.1862   -3.1544 C.3       3 UNK         0.0319 
     28 CB         25.5140   26.5127   -4.6373 C.3       3 UNK        -0.2001 
     29 N          26.0808   25.0393   -2.7715 N.am      3 UNK        -0.4354 
     30 C          25.8051   24.1856   -1.7775 C.2       2 UNK         0.4964 
     31 O          24.7681   24.2414   -1.1120 O.2       2 UNK        -0.5047 
     32 CA         26.8641   23.1132   -1.4426 C.3       2 UNK         0.0288 
     33 CB         28.2525   23.3781   -2.0699 C.3       2 UNK        -0.2113 
     34 N          27.0026   22.9035    0.0043 N.am      2 UNK        -0.4145 
     35 C          27.2738   23.8361    0.9296 C.2       1 UNK         0.5006 
     36 O          27.4480   25.0347    0.6843 O.2       1 UNK        -0.5103 
     37 C          29.8889   28.2781    1.3895 C.2       5 UNK         0.5055 
     38 O          30.4739   29.3451    1.5744 O.2       5 UNK        -0.5220 
     39 N          29.6123   27.4004    2.3656 N.am      6 UNK        -0.4450 
     40 CA         30.0088   27.5886    3.7659 C.3       6 UNK         0.0367 
     41 CB         29.8391   26.2734    4.5403 C.3       6 UNK        -0.1929 
     42 C          29.2648   28.7349    4.4761 C.2       6 UNK         0.5070 
     43 O          29.7510   29.2201    5.4954 O.2       6 UNK        -0.5237 
     44 N          28.1096   29.1546    3.9415 N.am      7 UNK        -0.4739 
     45 CA         27.3881   30.3397    4.4081 C.3       7 UNK         0.0276 
     46 CB         25.9115   30.2500    3.9937 C.3       7 UNK        -0.1927 
     47 C          28.0359   31.6326    3.8837 C.2       7 UNK         0.5013 
     48 O          28.1474   32.5986    4.6393 O.2       7 UNK        -0.5193 
     49 N          28.4571   31.6257    2.6102 N.am      8 UNK        -0.4253 
     50 CA         29.1502   32.7356    1.9550 C.3       8 UNK         0.0242 
     51 CB         29.1453   32.5198    0.4326 C.3       8 UNK        -0.2000 
     52 C          30.5841   32.9356    2.4733 C.2       8 UNK         0.4948 
     53 O          30.9732   34.0759    2.7312 O.2       8 UNK        -0.5275 
     54 N          31.3411   31.8408    2.6173 N.am      9 UNK        -0.4246 
     55 CA         32.7217   31.8395    3.0912 C.3       9 UNK         0.0261 
     56 CB         33.6829   31.9878    1.8967 C.3       9 UNK        -0.1959 
     57 C          32.9672   30.5431    3.8674 C.2       9 UNK         0.5033 
     58 O          33.2097   29.5020    3.2567 O.2       9 UNK        -0.5390 
     59 N          32.9127   30.6218    5.2024 N.am      10 UNK        -0.4215 
     60 CA         33.0124   29.4974    6.1437 C.3       10 UNK         0.0240 
     61 CB         32.4371   29.9454    7.5018 C.3       10 UNK        -0.1982 
     62 C          34.4202   28.8747    6.2867 C.2       10 UNK         0.4970 
     63 O          34.7738   28.4341    7.3817 O.2       10 UNK        -0.4916 
     64 N          35.1931   28.8331    5.1931 N.am      11 UNK        -0.4279 
     65 CA         36.5293   28.2199    5.0857 C.3       11 UNK         0.1003 
     66 C          37.6226   28.8546    6.0035 C.2       11 UNK         0.5709 
     67 N          37.4510   30.0829    6.4783 N.am      11 UNK        -0.7358 
     68 O          38.6613   28.2493    6.2594 O.2       11 UNK        -0.4999 
     69 C69        36.4589   26.6652    5.1758 C.3       12 UNK        -0.0954 
     70 S70        35.7877   25.9110    3.6570 S.3       12 UNK        -0.2268 
     71 C71        33.9939   25.8974    3.9676 C.3       12 UNK         0.0203 
     72 H72        25.7224   26.3376    4.4727 H         1 UNK         0.0888 
     73 H73        24.6334   25.2661    5.3566 H         1 UNK         0.0888 
     74 H74        26.2094   25.6821    6.0358 H         1 UNK         0.0888 
     75 H75        26.6551   25.2715    2.7166 H         1 UNK         0.3017 
     76 H76        26.8108   22.4344    2.4964 H         1 UNK         0.0873 
     77 H77        28.9166   22.8884    3.8688 H         1 UNK         0.0745 
     78 H78        29.4507   24.0007    2.6344 H         1 UNK         0.0745 
     79 H79        31.4025   21.6403    3.5334 H         1 UNK         0.0705 
     80 H80        31.9462   21.0550    1.9805 H         1 UNK         0.0705 
     81 H81        32.6958   23.5061    4.1537 H         1 UNK         0.1334 
     82 H82        33.6846   26.5974    1.3554 H         1 UNK         0.1417 
     83 H83        31.4903   23.1452    0.0552 H         1 UNK         0.1562 
     84 H84        32.0822   24.7782   -1.5574 H         1 UNK         0.0748 
     85 H85        33.6272   25.5178   -1.2222 H         1 UNK         0.0748 
     86 H86        30.0154   25.8586   -0.0630 H         1 UNK         0.0940 
     87 H87        29.6160   26.5143   -1.6276 H         1 UNK         0.0940 
     88 H88        29.5108   28.8251   -0.6381 H         1 UNK         0.0703 
     89 H89        27.6157   26.7449   -0.1424 H         1 UNK         0.3081 
     90 H90        25.2853   27.5851    1.1065 H         1 UNK         0.0719 
     91 H91        23.4757   28.9456    0.0150 H         1 UNK         0.0809 
     92 H92        24.5496   29.9397    0.9801 H         1 UNK         0.0809 
     93 H93        24.7029   29.9410   -0.7668 H         1 UNK         0.0809 
     94 H94        24.9861   26.2528   -0.6489 H         1 UNK         0.2990 
     95 H95        24.1991   25.9169   -3.0567 H         1 UNK         0.0690 
     96 H96        26.5526   26.7957   -4.8134 H         1 UNK         0.0788 
     97 H97        24.8884   27.3420   -4.9706 H         1 UNK         0.0788 
     98 H98        25.2852   25.6602   -5.2771 H         1 UNK         0.0788 
     99 H99        26.9653   24.9447   -3.2496 H         1 UNK         0.2993 
    100 H100       26.4840   22.1776   -1.8555 H         1 UNK         0.0949 
    101 H101       28.6680   24.3331   -1.7503 H         1 UNK         0.0767 
    102 H102       28.9633   22.6026   -1.7832 H         1 UNK         0.0767 
    103 H103       28.2092   23.3760   -3.1597 H         1 UNK         0.0767 
    104 H104       26.8634   21.9529    0.3172 H         1 UNK         0.3013 
    105 H105       29.1165   26.5530    2.1297 H         1 UNK         0.3121 
    106 H106       31.0703   27.8453    3.7744 H         1 UNK         0.0774 
    107 H107       28.8059   25.9295    4.5344 H         1 UNK         0.0815 
    108 H108       30.1348   26.3949    5.5833 H         1 UNK         0.0815 
    109 H109       30.4658   25.4865    4.1241 H         1 UNK         0.0815 
    110 H110       27.7860   28.7215    3.0902 H         1 UNK         0.2987 
    111 H111       27.4263   30.3677    5.4998 H         1 UNK         0.0949 
    112 H112       25.7951   30.2520    2.9113 H         1 UNK         0.0806 
    113 H113       25.4423   29.3462    4.3828 H         1 UNK         0.0806 
    114 H114       25.3485   31.1002    4.3811 H         1 UNK         0.0806 
    115 H115       28.2744   30.8078    2.0368 H         1 UNK         0.3010 
    116 H116       28.5917   33.6501    2.1661 H         1 UNK         0.0829 
    117 H117       28.1280   32.4616    0.0449 H         1 UNK         0.0813 
    118 H118       29.6431   33.3432   -0.0812 H         1 UNK         0.0813 
    119 H119       29.6598   31.5996    0.1526 H         1 UNK         0.0813 
    120 H120       30.9639   30.9293    2.3523 H         1 UNK         0.3038 
    121 H121       32.8840   32.6806    3.7689 H         1 UNK         0.0769 
    122 H122       33.5333   31.1975    1.1596 H         1 UNK         0.0811 
    123 H123       34.7224   31.9398    2.2230 H         1 UNK         0.0811 
    124 H124       33.5437   32.9443    1.3929 H         1 UNK         0.0811 
    125 H125       32.7278   31.5239    5.6172 H         1 UNK         0.3204 
    126 H126       32.3738   28.6969    5.7664 H         1 UNK         0.0748 
    127 H127       33.0521   30.7179    7.9650 H         1 UNK         0.0771 
    128 H128       31.4260   30.3389    7.3949 H         1 UNK         0.0771 
    129 H129       32.3774   29.1100    8.2008 H         1 UNK         0.0771 
    130 H130       34.7820   29.1635    4.3254 H         1 UNK         0.2980 
    131 H131       36.8759   28.4692    4.0823 H         1 UNK         0.0545 
    132 H132       38.1658   30.4919    7.0591 H         1 UNK         0.3459 
    133 H133       36.6106   30.5974    6.2709 H         1 UNK         0.3459 
    134 H134       37.4532   26.2338    5.2999 H         1 UNK         0.0616 
    135 H135       35.8854   26.3366    6.0434 H         1 UNK         0.0616 
    136 H136       33.7975   25.4576    4.9465 H         1 UNK         0.0634 
    137 H137       33.6157   26.9186    3.9996 H         1 UNK         0.0634 
@<TRIPOS>BOND
     1    1    2 1    
     2    1   72 1    
     3    1   73 1    
     4    1   74 1    
     5    2    3 2    
     6    2    4 am   BACKBONE|DICT|INTERRES
     7    4    5 1    
     8    4   75 1    
     9    5    6 1    
    10    5   35 1    
    11    5   76 1    
    12    6    7 1    
    13    6   77 1    
    14    6   78 1    
    15    7    8 1    
    16    8    9 1    
    17    8   79 1    
    18    8   80 1    
    19    9   10 ar   
    20    9   14 ar   
    21   10   11 ar   
    22   10   81 1    
    23   11   12 ar   
    24   11   71 1    
    25   12   13 ar   
    26   12   82 1    
    27   13   14 ar   
    28   13   15 1    
    29   14   83 1    
    30   15   16 1    
    31   15   84 1    
    32   15   85 1    
    33   16   17 1    
    34   17   18 1    
    35   17   86 1    
    36   17   87 1    
    37   18   19 1    
    38   18   37 1    
    39   18   88 1    
    40   19   20 am   BACKBONE|DICT|INTERRES
    41   19   89 1    
    42   20   21 2    
    43   20   22 1    
    44   22   23 1    
    45   22   24 1    
    46   22   90 1    
    47   23   91 1    
    48   23   92 1    
    49   23   93 1    
    50   24   25 am   BACKBONE|DICT|INTERRES
    51   24   94 1    
    52   25   26 2    
    53   25   27 1    
    54   27   28 1    
    55   27   29 1    
    56   27   95 1    
    57   28   96 1    
    58   28   97 1    
    59   28   98 1    
    60   29   30 am   BACKBONE|DICT|INTERRES
    61   29   99 1    
    62   30   31 2    
    63   30   32 1    
    64   32   33 1    
    65   32   34 1    
    66   32  100 1    
    67   33  101 1    
    68   33  102 1    
    69   33  103 1    
    70   34   35 am   BACKBONE|DICT|INTERRES
    71   34  104 1    
    72   35   36 2    
    73   37   38 2    
    74   37   39 am   BACKBONE|DICT|INTERRES
    75   39   40 1    
    76   39  105 1    
    77   40   41 1    
    78   40   42 1    
    79   40  106 1    
    80   41  107 1    
    81   41  108 1    
    82   41  109 1    
    83   42   43 2    
    84   42   44 am   BACKBONE|DICT|INTERRES
    85   44   45 1    
    86   44  110 1    
    87   45   46 1    
    88   45   47 1    
    89   45  111 1    
    90   46  112 1    
    91   46  113 1    
    92   46  114 1    
    93   47   48 2    
    94   47   49 am   BACKBONE|DICT|INTERRES
    95   49   50 1    
    96   49  115 1    
    97   50   51 1    
    98   50   52 1    
    99   50  116 1    
   100   51  117 1    
   101   51  118 1    
   102   51  119 1    
   103   52   53 2    
   104   52   54 am   BACKBONE|DICT|INTERRES
   105   54   55 1    
   106   54  120 1    
   107   55   56 1    
   108   55   57 1    
   109   55  121 1    
   110   56  122 1    
   111   56  123 1    
   112   56  124 1    
   113   57   58 2    
   114   57   59 am   BACKBONE|DICT|INTERRES
   115   59   60 1    
   116   59  125 1    
   117   60   61 1    
   118   60   62 1    
   119   60  126 1    
   120   61  127 1    
   121   61  128 1    
   122   61  129 1    
   123   62   63 2    
   124   62   64 am   BACKBONE|DICT|INTERRES
   125   64   65 1    
   126   64  130 1    
   127   65   66 1    
   128   65   69 1    
   129   65  131 1    
   130   66   67 am   BACKBONE|DICT|INTERRES
   131   66   68 2    
   132   67  132 1    
   133   67  133 1    
   134   69   70 1    
   135   69  134 1    
   136   69  135 1    
   137   70   71 1    
   138   71  136 1    
   139   71  137 1    
@<TRIPOS>SUBSTRUCTURE
     1 UNK         1 GROUP             0       ****    0 ROOT    
