@<TRIPOS>MOLECULE
3R136
137   139    1
SMALL
USER_CHARGES


@<TRIPOS>ATOM
      1 CA         32.2396   20.1240   -3.3826 C.3       0 UNK        -0.1979 
      2 C          31.4436   21.3680   -3.0162 C.2       0 UNK         0.4864 
      3 O          31.1395   22.1773   -3.8932 O.2       0 UNK        -0.5359 
      4 N          31.1099   21.5264   -1.7273 N.am      1 UNK        -0.4318 
      5 CA         30.3248   22.6450   -1.1915 C.3       1 UNK         0.0824 
      6 C6         30.4068   22.6850    0.3560 C.3       12 UNK        -0.0944 
      7 S7         29.7319   24.2106    1.0932 S.3       12 UNK        -0.2672 
      8 C8         30.1591   23.9289    2.8366 C.3       12 UNK         0.0333 
      9 C9         29.5425   24.9926    3.7293 C.ar      12 UNK        -0.0807 
     10 C10        30.2761   26.1259    4.0923 C.ar      12 UNK        -0.0894 
     11 C11        29.7080   27.1032    4.9157 C.ar      12 UNK        -0.0804 
     12 C12        28.3990   26.9386    5.3797 C.ar      12 UNK        -0.0824 
     13 C13        27.6560   25.8101    5.0187 C.ar      12 UNK        -0.0762 
     14 C14        28.2345   24.8391    4.1967 C.ar      12 UNK        -0.0782 
     15 C15        26.2245   25.6384    5.5035 C.3       12 UNK         0.0230 
     16 S16        25.0258   25.9411    4.1667 S.3       12 UNK        -0.2608 
     17 C17        25.1728   27.7462    3.9317 C.3       12 UNK        -0.0989 
     18 CA         26.1691   28.1468    2.8094 C.3       5 UNK         0.0716 
     19 N          25.8577   27.4893    1.5310 N.am      5 UNK        -0.4135 
     20 C          26.6884   27.3195    0.4939 C.2       4 UNK         0.5031 
     21 O          27.8266   27.7929    0.4507 O.2       4 UNK        -0.5229 
     22 CA         26.1585   26.4733   -0.6769 C.3       4 UNK         0.0329 
     23 CB         27.0078   26.6409   -1.9496 C.3       4 UNK        -0.2001 
     24 N          26.1205   25.0588   -0.3016 N.am      4 UNK        -0.4303 
     25 C          25.1680   24.5031    0.4622 C.2       3 UNK         0.5044 
     26 O          24.1706   25.1223    0.8397 O.2       3 UNK        -0.5152 
     27 CA         25.3705   23.0377    0.9050 C.3       3 UNK         0.0319 
     28 CB         24.0486   22.3404    1.2913 C.3       3 UNK        -0.2001 
     29 N          26.1348   22.2250   -0.0493 N.am      3 UNK        -0.4354 
     30 C          25.8129   21.9372   -1.3211 C.2       2 UNK         0.4964 
     31 O          24.7556   22.2758   -1.8557 O.2       2 UNK        -0.5047 
     32 CA         26.8666   21.1477   -2.1321 C.3       2 UNK         0.0288 
     33 CB         26.7083   21.3417   -3.6557 C.3       2 UNK        -0.2113 
     34 N          28.2564   21.4191   -1.7270 N.am      2 UNK        -0.4145 
     35 C          28.8626   22.6186   -1.6864 C.2       1 UNK         0.5006 
     36 O          28.3113   23.6745   -1.9969 O.2       1 UNK        -0.5103 
     37 C          26.3478   29.6837    2.7087 C.2       5 UNK         0.5055 
     38 O          25.8619   30.4211    3.5685 O.2       5 UNK        -0.5220 
     39 N          27.0582   30.1386    1.6733 N.am      6 UNK        -0.4450 
     40 CA         27.4885   31.5176    1.4422 C.3       6 UNK         0.0367 
     41 CB         26.8195   32.0365    0.1574 C.3       6 UNK        -0.1929 
     42 C          29.0231   31.6089    1.3436 C.2       6 UNK         0.5070 
     43 O          29.5465   32.6873    1.0585 O.2       6 UNK        -0.5237 
     44 N          29.7279   30.4889    1.5672 N.am      7 UNK        -0.4739 
     45 CA         31.1821   30.3479    1.4816 C.3       7 UNK         0.0276 
     46 CB         31.5228   28.8528    1.3369 C.3       7 UNK        -0.1927 
     47 C          31.9104   31.0048    2.6695 C.2       7 UNK         0.5013 
     48 O          32.5712   30.3187    3.4520 O.2       7 UNK        -0.5193 
     49 N          31.8045   32.3350    2.7758 N.am      8 UNK        -0.4253 
     50 CA         32.4390   33.1632    3.8090 C.3       8 UNK         0.0242 
     51 CB         32.0431   34.6327    3.5973 C.3       8 UNK        -0.2000 
     52 C          33.9711   33.0207    3.8792 C.2       8 UNK         0.4948 
     53 O          34.5383   33.1588    4.9614 O.2       8 UNK        -0.5275 
     54 N          34.6085   32.6959    2.7456 N.am      9 UNK        -0.4246 
     55 CA         36.0316   32.3609    2.6558 C.3       9 UNK         0.0261 
     56 CB         36.4438   32.3096    1.1755 C.3       9 UNK        -0.1959 
     57 C          36.4062   31.0427    3.3634 C.2       9 UNK         0.5033 
     58 O          37.5621   30.8947    3.7631 O.2       9 UNK        -0.5390 
     59 N          35.4470   30.1153    3.5015 N.am      10 UNK        -0.4215 
     60 CA         35.6183   28.8441    4.2043 C.3       10 UNK         0.0240 
     61 CB         34.8114   27.7407    3.4965 C.3       10 UNK        -0.1982 
     62 C          35.1973   28.9714    5.6746 C.2       10 UNK         0.4970 
     63 O          35.9508   28.5465    6.5515 O.2       10 UNK        -0.4916 
     64 N          34.0091   29.5420    5.9183 N.am      11 UNK        -0.4279 
     65 CA         33.4485   29.7213    7.2680 C.3       11 UNK         0.1003 
     66 C          34.0980   30.8623    8.1019 C.2       11 UNK         0.5709 
     67 N          34.7543   31.8488    7.5065 N.am      11 UNK        -0.7358 
     68 O          34.0171   30.8412    9.3280 O.2       11 UNK        -0.4999 
     69 C69        31.9027   29.8457    7.2359 C.3       12 UNK        -0.0954 
     70 S70        31.1005   28.2240    7.0101 S.3       12 UNK        -0.2268 
     71 C71        30.5033   28.3399    5.3008 C.3       12 UNK         0.0203 
     72 H72        31.6873   19.5252   -4.1063 H         1 UNK         0.0888 
     73 H73        33.1921   20.4066   -3.8301 H         1 UNK         0.0888 
     74 H74        32.4460   19.4998   -2.5133 H         1 UNK         0.0888 
     75 H75        31.4063   20.8326   -1.0552 H         1 UNK         0.3017 
     76 H76        30.7746   23.5641   -1.5745 H         1 UNK         0.0873 
     77 H77        31.4507   22.6105    0.6660 H         1 UNK         0.0745 
     78 H78        29.8990   21.8245    0.7959 H         1 UNK         0.0745 
     79 H79        29.8095   22.9418    3.1434 H         1 UNK         0.0705 
     80 H80        31.2446   23.9213    2.9471 H         1 UNK         0.0705 
     81 H81        31.2885   26.2469    3.7316 H         1 UNK         0.1334 
     82 H82        27.9593   27.6943    6.0164 H         1 UNK         0.1417 
     83 H83        27.6600   23.9684    3.9110 H         1 UNK         0.1562 
     84 H84        26.0120   26.2983    6.3462 H         1 UNK         0.0748 
     85 H85        26.0896   24.6209    5.8731 H         1 UNK         0.0748 
     86 H86        25.4608   28.1960    4.8839 H         1 UNK         0.0940 
     87 H87        24.1785   28.1365    3.7069 H         1 UNK         0.0940 
     88 H88        27.1510   27.7750    3.1023 H         1 UNK         0.0703 
     89 H89        24.9663   27.0080    1.4913 H         1 UNK         0.3081 
     90 H90        25.1465   26.8125   -0.9086 H         1 UNK         0.0719 
     91 H91        27.0170   27.6808   -2.2782 H         1 UNK         0.0809 
     92 H92        28.0443   26.3422   -1.7866 H         1 UNK         0.0809 
     93 H93        26.6143   26.0420   -2.7712 H         1 UNK         0.0809 
     94 H94        26.9088   24.4957   -0.6018 H         1 UNK         0.2990 
     95 H95        25.9827   23.0913    1.8066 H         1 UNK         0.0690 
     96 H96        24.2212   21.3163    1.6221 H         1 UNK         0.0788 
     97 H97        23.3472   22.3111    0.4570 H         1 UNK         0.0788 
     98 H98        23.5556   22.8646    2.1111 H         1 UNK         0.0788 
     99 H99        27.0297   21.8966    0.2847 H         1 UNK         0.2993 
    100 H100       26.6817   20.0949   -1.9132 H         1 UNK         0.0949 
    101 H101       26.8192   22.3882   -3.9423 H         1 UNK         0.0767 
    102 H102       27.4492   20.7635   -4.2080 H         1 UNK         0.0767 
    103 H103       25.7250   21.0132   -3.9947 H         1 UNK         0.0767 
    104 H104       28.7963   20.6112   -1.4490 H         1 UNK         0.3013 
    105 H105       27.4199   29.4369    1.0273 H         1 UNK         0.3121 
    106 H106       27.1874   32.1558    2.2753 H         1 UNK         0.0774 
    107 H107       27.1176   31.4542   -0.7154 H         1 UNK         0.0815 
    108 H108       25.7329   31.9947    0.2333 H         1 UNK         0.0815 
    109 H109       27.0893   33.0759   -0.0345 H         1 UNK         0.0815 
    110 H110       29.2207   29.6516    1.8139 H         1 UNK         0.2987 
    111 H111       31.5246   30.8539    0.5762 H         1 UNK         0.0949 
    112 H112       31.1855   28.2757    2.1975 H         1 UNK         0.0806 
    113 H113       31.0575   28.4240    0.4489 H         1 UNK         0.0806 
    114 H114       32.5989   28.7016    1.2423 H         1 UNK         0.0806 
    115 H115       31.1867   32.8020    2.1171 H         1 UNK         0.3010 
    116 H116       32.0428   32.8364    4.7727 H         1 UNK         0.0829 
    117 H117       32.3845   35.0077    2.6316 H         1 UNK         0.0813 
    118 H118       32.4792   35.2698    4.3682 H         1 UNK         0.0813 
    119 H119       30.9618   34.7632    3.6448 H         1 UNK         0.0813 
    120 H120       34.0654   32.6196    1.8980 H         1 UNK         0.3038 
    121 H121       36.5948   33.1616    3.1401 H         1 UNK         0.0769 
    122 H122       36.2625   33.2629    0.6787 H         1 UNK         0.0811 
    123 H123       35.9009   31.5361    0.6307 H         1 UNK         0.0811 
    124 H124       37.5082   32.0920    1.0748 H         1 UNK         0.0811 
    125 H125       34.5011   30.3347    3.2058 H         1 UNK         0.3204 
    126 H126       36.6699   28.5499    4.1797 H         1 UNK         0.0748 
    127 H127       33.7398   27.9407    3.5071 H         1 UNK         0.0771 
    128 H128       35.1197   27.6310    2.4567 H         1 UNK         0.0771 
    129 H129       34.9644   26.7765    3.9830 H         1 UNK         0.0771 
    130 H130       33.4404   29.8575    5.1392 H         1 UNK         0.2980 
    131 H131       33.6824   28.8145    7.8302 H         1 UNK         0.0545 
    132 H132       35.1714   32.5649    8.0785 H         1 UNK         0.3459 
    133 H133       34.7608   31.9579    6.4986 H         1 UNK         0.3459 
    134 H134       31.5828   30.5456    6.4617 H         1 UNK         0.0616 
    135 H135       31.5201   30.2443    8.1775 H         1 UNK         0.0616 
    136 H136       31.3625   28.4530    4.6422 H         1 UNK         0.0634 
    137 H137       29.8871   29.2320    5.1789 H         1 UNK         0.0634 
@<TRIPOS>BOND
     1    1    2 1    
     2    1   72 1    
     3    1   73 1    
     4    1   74 1    
     5    2    3 2    
     6    2    4 am   BACKBONE|DICT|INTERRES
     7    4    5 1    
     8    4   75 1    
     9    5    6 1    
    10    5   35 1    
    11    5   76 1    
    12    6    7 1    
    13    6   77 1    
    14    6   78 1    
    15    7    8 1    
    16    8    9 1    
    17    8   79 1    
    18    8   80 1    
    19    9   10 ar   
    20    9   14 ar   
    21   10   11 ar   
    22   10   81 1    
    23   11   12 ar   
    24   11   71 1    
    25   12   13 ar   
    26   12   82 1    
    27   13   14 ar   
    28   13   15 1    
    29   14   83 1    
    30   15   16 1    
    31   15   84 1    
    32   15   85 1    
    33   16   17 1    
    34   17   18 1    
    35   17   86 1    
    36   17   87 1    
    37   18   19 1    
    38   18   37 1    
    39   18   88 1    
    40   19   20 am   BACKBONE|DICT|INTERRES
    41   19   89 1    
    42   20   21 2    
    43   20   22 1    
    44   22   23 1    
    45   22   24 1    
    46   22   90 1    
    47   23   91 1    
    48   23   92 1    
    49   23   93 1    
    50   24   25 am   BACKBONE|DICT|INTERRES
    51   24   94 1    
    52   25   26 2    
    53   25   27 1    
    54   27   28 1    
    55   27   29 1    
    56   27   95 1    
    57   28   96 1    
    58   28   97 1    
    59   28   98 1    
    60   29   30 am   BACKBONE|DICT|INTERRES
    61   29   99 1    
    62   30   31 2    
    63   30   32 1    
    64   32   33 1    
    65   32   34 1    
    66   32  100 1    
    67   33  101 1    
    68   33  102 1    
    69   33  103 1    
    70   34   35 am   BACKBONE|DICT|INTERRES
    71   34  104 1    
    72   35   36 2    
    73   37   38 2    
    74   37   39 am   BACKBONE|DICT|INTERRES
    75   39   40 1    
    76   39  105 1    
    77   40   41 1    
    78   40   42 1    
    79   40  106 1    
    80   41  107 1    
    81   41  108 1    
    82   41  109 1    
    83   42   43 2    
    84   42   44 am   BACKBONE|DICT|INTERRES
    85   44   45 1    
    86   44  110 1    
    87   45   46 1    
    88   45   47 1    
    89   45  111 1    
    90   46  112 1    
    91   46  113 1    
    92   46  114 1    
    93   47   48 2    
    94   47   49 am   BACKBONE|DICT|INTERRES
    95   49   50 1    
    96   49  115 1    
    97   50   51 1    
    98   50   52 1    
    99   50  116 1    
   100   51  117 1    
   101   51  118 1    
   102   51  119 1    
   103   52   53 2    
   104   52   54 am   BACKBONE|DICT|INTERRES
   105   54   55 1    
   106   54  120 1    
   107   55   56 1    
   108   55   57 1    
   109   55  121 1    
   110   56  122 1    
   111   56  123 1    
   112   56  124 1    
   113   57   58 2    
   114   57   59 am   BACKBONE|DICT|INTERRES
   115   59   60 1    
   116   59  125 1    
   117   60   61 1    
   118   60   62 1    
   119   60  126 1    
   120   61  127 1    
   121   61  128 1    
   122   61  129 1    
   123   62   63 2    
   124   62   64 am   BACKBONE|DICT|INTERRES
   125   64   65 1    
   126   64  130 1    
   127   65   66 1    
   128   65   69 1    
   129   65  131 1    
   130   66   67 am   BACKBONE|DICT|INTERRES
   131   66   68 2    
   132   67  132 1    
   133   67  133 1    
   134   69   70 1    
   135   69  134 1    
   136   69  135 1    
   137   70   71 1    
   138   71  136 1    
   139   71  137 1    
@<TRIPOS>SUBSTRUCTURE
     1 UNK         1 GROUP             0       ****    0 ROOT    
