@<TRIPOS>MOLECULE
3R136
137   139    1
SMALL
USER_CHARGES


@<TRIPOS>ATOM
      1 CA         26.4906   22.7116   -1.9214 C.3       0 UNK        -0.1979 
      2 C          27.0019   22.7644   -0.4900 C.2       0 UNK         0.4864 
      3 O          26.2362   22.4916    0.4359 O.2       0 UNK        -0.5359 
      4 N          28.2821   23.1224   -0.3042 N.am      1 UNK        -0.4318 
      5 CA         28.9965   23.1936    0.9795 C.3       1 UNK         0.0824 
      6 C6         29.2510   21.7944    1.6151 C.3       12 UNK        -0.0944 
      7 S7         30.1579   20.6718    0.4980 S.3       12 UNK        -0.2672 
      8 C8         31.8531   20.7621    1.1609 C.3       12 UNK         0.0333 
      9 C9         32.4397   22.1654    1.0761 C.ar      12 UNK        -0.0807 
     10 C10        32.8834   22.8143    2.2337 C.ar      12 UNK        -0.0894 
     11 C11        33.4355   24.0977    2.1638 C.ar      12 UNK        -0.0804 
     12 C12        33.5471   24.7241    0.9195 C.ar      12 UNK        -0.0824 
     13 C13        33.0489   24.1133   -0.2354 C.ar      12 UNK        -0.0762 
     14 C14        32.5271   22.8205   -0.1570 C.ar      12 UNK        -0.0782 
     15 C15        33.0158   24.8790   -1.5520 C.3       12 UNK         0.0230 
     16 S16        31.4132   25.7284   -1.7904 S.3       12 UNK        -0.2608 
     17 C17        31.3480   26.7468   -0.2784 C.3       12 UNK        -0.0989 
     18 CA         30.2623   27.8468   -0.2526 C.3       5 UNK         0.0716 
     19 N          28.9395   27.3195   -0.6109 N.am      5 UNK        -0.4135 
     20 C          27.7493   27.9277   -0.5016 C.2       4 UNK         0.5031 
     21 O          27.5716   29.0250    0.0278 O.2       4 UNK        -0.5229 
     22 CA         26.5441   27.1839   -1.0853 C.3       4 UNK         0.0329 
     23 CB         26.8878   26.3020   -2.3039 C.3       4 UNK        -0.2001 
     24 N          25.9084   26.3803   -0.0421 N.am      4 UNK        -0.4303 
     25 C          24.5832   26.2114    0.0745 C.2       3 UNK         0.5044 
     26 O          23.7671   26.7373   -0.6844 O.2       3 UNK        -0.5152 
     27 CA         24.0525   25.2964    1.1955 C.3       3 UNK         0.0319 
     28 CB         23.1840   24.1674    0.6119 C.3       3 UNK        -0.2001 
     29 N          25.1137   24.6945    2.0040 N.am      3 UNK        -0.4354 
     30 C          25.5855   25.2019    3.1515 C.2       2 UNK         0.4964 
     31 O          25.1729   26.2435    3.6610 O.2       2 UNK        -0.5047 
     32 CA         26.7167   24.4234    3.8510 C.3       2 UNK         0.0288 
     33 CB         26.1326   23.4607    4.8973 C.3       2 UNK        -0.2113 
     34 N          27.5754   23.6692    2.9348 N.am      2 UNK        -0.4145 
     35 C          28.2974   24.1881    1.9305 C.2       1 UNK         0.5006 
     36 O          28.3735   25.3973    1.6990 O.2       1 UNK        -0.5103 
     37 C          30.3262   28.5450    1.1204 C.2       5 UNK         0.5055 
     38 O          30.9742   29.5853    1.2429 O.2       5 UNK        -0.5220 
     39 N          29.6543   27.9642    2.1258 N.am      6 UNK        -0.4450 
     40 CA         29.6442   28.4450    3.5086 C.3       6 UNK         0.0367 
     41 CB         28.8847   27.4548    4.3966 C.3       6 UNK        -0.1929 
     42 C          29.0961   29.8688    3.6980 C.2       6 UNK         0.5070 
     43 O          29.4494   30.5083    4.6903 O.2       6 UNK        -0.5237 
     44 N          28.3017   30.3629    2.7351 N.am      7 UNK        -0.4739 
     45 CA         27.8087   31.7426    2.6767 C.3       7 UNK         0.0276 
     46 CB         26.8245   31.8837    1.5054 C.3       7 UNK        -0.1927 
     47 C          28.9259   32.7985    2.5708 C.2       7 UNK         0.5013 
     48 O          28.7014   33.9428    2.9645 O.2       7 UNK        -0.5193 
     49 N          30.1197   32.3999    2.1051 N.am      8 UNK        -0.4253 
     50 CA         31.3377   33.2152    2.0949 C.3       8 UNK         0.0242 
     51 CB         32.2048   32.8020    0.8920 C.3       8 UNK        -0.2000 
     52 C          32.1063   33.1453    3.4345 C.2       8 UNK         0.4948 
     53 O          33.3356   33.2014    3.4318 O.2       8 UNK        -0.5275 
     54 N          31.3713   33.0444    4.5522 N.am      9 UNK        -0.4246 
     55 CA         31.8367   33.0015    5.9427 C.3       9 UNK         0.0261 
     56 CB         32.5744   34.3037    6.3261 C.3       9 UNK        -0.1959 
     57 C          32.6289   31.7252    6.2876 C.2       9 UNK         0.5033 
     58 O          33.6950   31.8171    6.8988 O.2       9 UNK        -0.5390 
     59 N          32.0563   30.5655    5.9263 N.am      10 UNK        -0.4215 
     60 CA         32.4540   29.1999    6.3086 C.3       10 UNK         0.0240 
     61 CB         31.9374   28.9115    7.7337 C.3       10 UNK        -0.1982 
     62 C          33.9629   28.8830    6.1617 C.2       10 UNK         0.4970 
     63 O          34.6426   28.7231    7.1761 O.2       10 UNK        -0.4916 
     64 N          34.5182   28.7745    4.9480 N.am      11 UNK        -0.4279 
     65 CA         33.9006   28.9408    3.6208 C.3       11 UNK         0.1003 
     66 C          34.6726   29.9813    2.7544 C.2       11 UNK         0.5709 
     67 N          35.5416   30.8057    3.3280 N.am      11 UNK        -0.7358 
     68 O          34.4987   30.0356    1.5401 O.2       11 UNK        -0.4999 
     69 C69        33.7493   27.5855    2.8723 C.3       12 UNK        -0.0954 
     70 S70        32.8790   26.2789    3.8082 S.3       12 UNK        -0.2268 
     71 C71        33.8958   24.8083    3.4326 C.3       12 UNK         0.0203 
     72 H72        27.2664   22.9647   -2.6436 H         1 UNK         0.0888 
     73 H73        26.1292   21.7097   -2.1508 H         1 UNK         0.0888 
     74 H74        25.6631   23.4089   -2.0491 H         1 UNK         0.0888 
     75 H75        28.8513   23.3283   -1.1125 H         1 UNK         0.3017 
     76 H76        29.9670   23.6407    0.7621 H         1 UNK         0.0873 
     77 H77        29.8068   21.8908    2.5499 H         1 UNK         0.0745 
     78 H78        28.3110   21.2995    1.8646 H         1 UNK         0.0745 
     79 H79        31.8514   20.3978    2.1895 H         1 UNK         0.0705 
     80 H80        32.4887   20.0800    0.5947 H         1 UNK         0.0705 
     81 H81        32.7988   22.3194    3.1917 H         1 UNK         0.1334 
     82 H82        33.9698   25.7156    0.8556 H         1 UNK         0.1417 
     83 H83        32.1512   22.3376   -1.0490 H         1 UNK         0.1562 
     84 H84        33.1857   24.1962   -2.3859 H         1 UNK         0.0748 
     85 H85        33.8235   25.6118   -1.5876 H         1 UNK         0.0748 
     86 H86        32.3304   27.2044   -0.1487 H         1 UNK         0.0940 
     87 H87        31.2023   26.0677    0.5648 H         1 UNK         0.0940 
     88 H88        30.5111   28.5944   -1.0081 H         1 UNK         0.0703 
     89 H89        28.9612   26.4132   -1.0526 H         1 UNK         0.3081 
     90 H90        25.8542   27.9605   -1.4232 H         1 UNK         0.0719 
     91 H91        27.5255   25.4596   -2.0400 H         1 UNK         0.0809 
     92 H92        25.9833   25.9008   -2.7613 H         1 UNK         0.0809 
     93 H93        27.4035   26.8795   -3.0725 H         1 UNK         0.0809 
     94 H94        26.5244   25.9735    0.6524 H         1 UNK         0.2990 
     95 H95        23.4132   25.9115    1.8322 H         1 UNK         0.0690 
     96 H96        22.7848   23.5273    1.3989 H         1 UNK         0.0788 
     97 H97        23.7482   23.5384   -0.0774 H         1 UNK         0.0788 
     98 H98        22.3320   24.5698    0.0623 H         1 UNK         0.0788 
     99 H99        25.5245   23.8396    1.6341 H         1 UNK         0.2993 
    100 H100       27.3419   25.1446    4.3747 H         1 UNK         0.0949 
    101 H101       26.9204   22.9647    5.4648 H         1 UNK         0.0767 
    102 H102       25.5078   23.9957    5.6142 H         1 UNK         0.0767 
    103 H103       25.5130   22.6904    4.4360 H         1 UNK         0.0767 
    104 H104       27.5327   22.6637    3.0129 H         1 UNK         0.3013 
    105 H105       29.1470   27.1022    1.9351 H         1 UNK         0.3121 
    106 H106       30.6834   28.4616    3.8302 H         1 UNK         0.0774 
    107 H107       28.9164   27.7618    5.4430 H         1 UNK         0.0815 
    108 H108       27.8360   27.3913    4.1050 H         1 UNK         0.0815 
    109 H109       29.3234   26.4586    4.3381 H         1 UNK         0.0815 
    110 H110       28.0873   29.7750    1.9352 H         1 UNK         0.2987 
    111 H111       27.2680   31.9367    3.6055 H         1 UNK         0.0949 
    112 H112       27.3145   31.7129    0.5460 H         1 UNK         0.0806 
    113 H113       25.9999   31.1758    1.5905 H         1 UNK         0.0806 
    114 H114       26.3915   32.8846    1.4769 H         1 UNK         0.0806 
    115 H115       30.2336   31.4290    1.8284 H         1 UNK         0.3010 
    116 H116       31.0620   34.2621    1.9515 H         1 UNK         0.0829 
    117 H117       31.6539   32.8922   -0.0442 H         1 UNK         0.0813 
    118 H118       33.0905   33.4328    0.8069 H         1 UNK         0.0813 
    119 H119       32.5459   31.7708    0.9803 H         1 UNK         0.0813 
    120 H120       30.3681   32.9903    4.4342 H         1 UNK         0.3038 
    121 H121       30.9332   32.9580    6.5531 H         1 UNK         0.0769 
    122 H122       33.5241   34.4040    5.8000 H         1 UNK         0.0811 
    123 H123       32.7937   34.3267    7.3942 H         1 UNK         0.0811 
    124 H124       31.9712   35.1832    6.1015 H         1 UNK         0.0811 
    125 H125       31.1665   30.6298    5.4340 H         1 UNK         0.3204 
    126 H126       31.9284   28.5103    5.6519 H         1 UNK         0.0748 
    127 H127       32.1687   27.8891    8.0359 H         1 UNK         0.0771 
    128 H128       32.3856   29.5803    8.4696 H         1 UNK         0.0771 
    129 H129       30.8549   29.0273    7.7924 H         1 UNK         0.0771 
    130 H130       35.5063   28.5726    4.9099 H         1 UNK         0.2980 
    131 H131       32.9053   29.3693    3.7193 H         1 UNK         0.0545 
    132 H132       35.6598   30.8172    4.3284 H         1 UNK         0.3459 
    133 H133       36.0198   31.4839    2.7569 H         1 UNK         0.3459 
    134 H134       33.1961   27.7383    1.9463 H         1 UNK         0.0616 
    135 H135       34.7351   27.2211    2.5802 H         1 UNK         0.0616 
    136 H136       34.9484   25.0800    3.3468 H         1 UNK         0.0634 
    137 H137       33.8315   24.1318    4.2860 H         1 UNK         0.0634 
@<TRIPOS>BOND
     1    1    2 1    
     2    1   72 1    
     3    1   73 1    
     4    1   74 1    
     5    2    3 2    
     6    2    4 am   BACKBONE|DICT|INTERRES
     7    4    5 1    
     8    4   75 1    
     9    5    6 1    
    10    5   35 1    
    11    5   76 1    
    12    6    7 1    
    13    6   77 1    
    14    6   78 1    
    15    7    8 1    
    16    8    9 1    
    17    8   79 1    
    18    8   80 1    
    19    9   10 ar   
    20    9   14 ar   
    21   10   11 ar   
    22   10   81 1    
    23   11   12 ar   
    24   11   71 1    
    25   12   13 ar   
    26   12   82 1    
    27   13   14 ar   
    28   13   15 1    
    29   14   83 1    
    30   15   16 1    
    31   15   84 1    
    32   15   85 1    
    33   16   17 1    
    34   17   18 1    
    35   17   86 1    
    36   17   87 1    
    37   18   19 1    
    38   18   37 1    
    39   18   88 1    
    40   19   20 am   BACKBONE|DICT|INTERRES
    41   19   89 1    
    42   20   21 2    
    43   20   22 1    
    44   22   23 1    
    45   22   24 1    
    46   22   90 1    
    47   23   91 1    
    48   23   92 1    
    49   23   93 1    
    50   24   25 am   BACKBONE|DICT|INTERRES
    51   24   94 1    
    52   25   26 2    
    53   25   27 1    
    54   27   28 1    
    55   27   29 1    
    56   27   95 1    
    57   28   96 1    
    58   28   97 1    
    59   28   98 1    
    60   29   30 am   BACKBONE|DICT|INTERRES
    61   29   99 1    
    62   30   31 2    
    63   30   32 1    
    64   32   33 1    
    65   32   34 1    
    66   32  100 1    
    67   33  101 1    
    68   33  102 1    
    69   33  103 1    
    70   34   35 am   BACKBONE|DICT|INTERRES
    71   34  104 1    
    72   35   36 2    
    73   37   38 2    
    74   37   39 am   BACKBONE|DICT|INTERRES
    75   39   40 1    
    76   39  105 1    
    77   40   41 1    
    78   40   42 1    
    79   40  106 1    
    80   41  107 1    
    81   41  108 1    
    82   41  109 1    
    83   42   43 2    
    84   42   44 am   BACKBONE|DICT|INTERRES
    85   44   45 1    
    86   44  110 1    
    87   45   46 1    
    88   45   47 1    
    89   45  111 1    
    90   46  112 1    
    91   46  113 1    
    92   46  114 1    
    93   47   48 2    
    94   47   49 am   BACKBONE|DICT|INTERRES
    95   49   50 1    
    96   49  115 1    
    97   50   51 1    
    98   50   52 1    
    99   50  116 1    
   100   51  117 1    
   101   51  118 1    
   102   51  119 1    
   103   52   53 2    
   104   52   54 am   BACKBONE|DICT|INTERRES
   105   54   55 1    
   106   54  120 1    
   107   55   56 1    
   108   55   57 1    
   109   55  121 1    
   110   56  122 1    
   111   56  123 1    
   112   56  124 1    
   113   57   58 2    
   114   57   59 am   BACKBONE|DICT|INTERRES
   115   59   60 1    
   116   59  125 1    
   117   60   61 1    
   118   60   62 1    
   119   60  126 1    
   120   61  127 1    
   121   61  128 1    
   122   61  129 1    
   123   62   63 2    
   124   62   64 am   BACKBONE|DICT|INTERRES
   125   64   65 1    
   126   64  130 1    
   127   65   66 1    
   128   65   69 1    
   129   65  131 1    
   130   66   67 am   BACKBONE|DICT|INTERRES
   131   66   68 2    
   132   67  132 1    
   133   67  133 1    
   134   69   70 1    
   135   69  134 1    
   136   69  135 1    
   137   70   71 1    
   138   71  136 1    
   139   71  137 1    
@<TRIPOS>SUBSTRUCTURE
     1 UNK         1 GROUP             0       ****    0 ROOT    
