@<TRIPOS>MOLECULE
3R136
137   139    1
SMALL
USER_CHARGES


@<TRIPOS>ATOM
      1 CA         29.7849   22.9730    4.9633 C.3       0 UNK        -0.1979 
      2 C          28.7867   22.6839    3.8517 C.2       0 UNK         0.4864 
      3 O          27.9041   21.8430    4.0215 O.2       0 UNK        -0.5359 
      4 N          28.9169   23.3842    2.7178 N.am      1 UNK        -0.4318 
      5 CA         28.0810   23.2301    1.5186 C.3       1 UNK         0.0824 
      6 C6         28.8738   23.6312    0.2422 C.3       12 UNK        -0.0944 
      7 S7         29.5902   22.1883   -0.6146 S.3       12 UNK        -0.2672 
      8 C8         31.0086   21.7421    0.4441 C.3       12 UNK         0.0333 
      9 C9         32.0283   22.8645    0.5884 C.ar      12 UNK        -0.0807 
     10 C10        32.4470   23.2721    1.8594 C.ar      12 UNK        -0.0894 
     11 C11        33.3781   24.3044    1.9998 C.ar      12 UNK        -0.0804 
     12 C12        33.8809   24.9353    0.8597 C.ar      12 UNK        -0.0824 
     13 C13        33.4519   24.5606   -0.4151 C.ar      12 UNK        -0.0762 
     14 C14        32.5549   23.4946   -0.5445 C.ar      12 UNK        -0.0782 
     15 C15        33.9608   25.3336   -1.6297 C.3       12 UNK         0.0230 
     16 S16        32.6983   25.6925   -2.9060 S.3       12 UNK        -0.2608 
     17 C17        31.1765   26.1117   -1.9832 C.3       12 UNK        -0.0989 
     18 CA         30.6945   27.5785   -2.1926 C.3       5 UNK         0.0716 
     19 N          29.2314   27.6608   -2.2815 N.am      5 UNK        -0.4135 
     20 C          28.3852   27.3317   -1.2971 C.2       4 UNK         0.5031 
     21 O          28.7519   26.8976   -0.2029 O.2       4 UNK        -0.5229 
     22 CA         26.8845   27.4614   -1.6049 C.3       4 UNK         0.0329 
     23 CB         26.3643   26.1901   -2.2941 C.3       4 UNK        -0.2001 
     24 N          26.1185   27.6804   -0.3785 N.am      4 UNK        -0.4303 
     25 C          26.0506   28.8430    0.2791 C.2       3 UNK         0.5044 
     26 O          26.5119   29.8931   -0.1653 O.2       3 UNK        -0.5152 
     27 CA         25.3831   28.8612    1.6694 C.3       3 UNK         0.0319 
     28 CB         23.9432   29.4054    1.5880 C.3       3 UNK        -0.2001 
     29 N          25.4455   27.5931    2.4164 N.am      3 UNK        -0.4354 
     30 C          24.8243   26.4339    2.1566 C.2       2 UNK         0.4964 
     31 O          24.0656   26.2601    1.2022 O.2       2 UNK        -0.5047 
     32 CA         25.1533   25.2705    3.1099 C.3       2 UNK         0.0288 
     33 CB         23.9950   24.2558    3.2203 C.3       2 UNK        -0.2113 
     34 N          26.4100   24.5933    2.7542 N.am      2 UNK        -0.4145 
     35 C          26.7073   23.9413    1.6155 C.2       1 UNK         0.5006 
     36 O          25.9358   23.8521    0.6597 O.2       1 UNK        -0.5103 
     37 C          31.2241   28.6015   -1.1563 C.2       5 UNK         0.5055 
     38 O          30.7281   29.7308   -1.1253 O.2       5 UNK        -0.5220 
     39 N          32.1916   28.2122   -0.3127 N.am      6 UNK        -0.4450 
     40 CA         32.7165   29.0507    0.7726 C.3       6 UNK         0.0367 
     41 CB         34.1012   28.5493    1.2082 C.3       6 UNK        -0.1929 
     42 C          31.7817   29.1343    1.9927 C.2       6 UNK         0.5070 
     43 O          32.0439   29.9416    2.8863 O.2       6 UNK        -0.5237 
     44 N          30.7036   28.3341    2.0347 N.am      7 UNK        -0.4739 
     45 CA         29.7299   28.3323    3.1327 C.3       7 UNK         0.0276 
     46 CB         28.8277   27.0961    3.0452 C.3       7 UNK        -0.1927 
     47 C          28.9110   29.6326    3.2342 C.2       7 UNK         0.5013 
     48 O          28.3311   29.8865    4.2888 O.2       7 UNK        -0.5193 
     49 N          28.9503   30.4753    2.1903 N.am      8 UNK        -0.4253 
     50 CA         28.5131   31.8761    2.2156 C.3       8 UNK         0.0242 
     51 CB         28.6819   32.4841    0.8135 C.3       8 UNK        -0.2000 
     52 C          29.2738   32.7335    3.2486 C.2       8 UNK         0.4948 
     53 O          28.6979   33.6797    3.7856 O.2       8 UNK        -0.5275 
     54 N          30.5344   32.3699    3.5251 N.am      9 UNK        -0.4246 
     55 CA         31.3870   32.9411    4.5685 C.3       9 UNK         0.0261 
     56 CB         32.7106   33.3953    3.9254 C.3       9 UNK        -0.1959 
     57 C          31.6238   31.9183    5.6979 C.2       9 UNK         0.5033 
     58 O          32.6475   31.9936    6.3810 O.2       9 UNK        -0.5390 
     59 N          30.6999   30.9543    5.8533 N.am      10 UNK        -0.4215 
     60 CA         30.7073   29.8484    6.8204 C.3       10 UNK         0.0240 
     61 CB         30.4612   30.3881    8.2456 C.3       10 UNK        -0.1982 
     62 C          31.9534   28.9400    6.7410 C.2       10 UNK         0.4970 
     63 O          32.3115   28.3255    7.7472 O.2       10 UNK        -0.4916 
     64 N          32.5972   28.8805    5.5645 N.am      11 UNK        -0.4279 
     65 CA         33.8792   28.2003    5.3165 C.3       11 UNK         0.1003 
     66 C          35.0846   28.8153    6.0957 C.2       11 UNK         0.5709 
     67 N          35.0013   30.0512    6.5785 N.am      11 UNK        -0.7358 
     68 O          36.1290   28.1830    6.2355 O.2       11 UNK        -0.4999 
     69 C69        33.7751   26.6498    5.4358 C.3       12 UNK        -0.0954 
     70 S70        32.7120   25.9370    4.1323 S.3       12 UNK        -0.2268 
     71 C71        33.8543   24.7381    3.3768 C.3       12 UNK         0.0203 
     72 H72        30.4619   23.7871    4.7046 H         1 UNK         0.0888 
     73 H73        29.2602   23.2488    5.8776 H         1 UNK         0.0888 
     74 H74        30.3839   22.0862    5.1687 H         1 UNK         0.0888 
     75 H75        29.6689   24.0529    2.6356 H         1 UNK         0.3017 
     76 H76        27.8192   22.1726    1.4372 H         1 UNK         0.0873 
     77 H77        29.6560   24.3590    0.4637 H         1 UNK         0.0745 
     78 H78        28.2395   24.1250   -0.4954 H         1 UNK         0.0745 
     79 H79        31.5058   20.8724    0.0130 H         1 UNK         0.0705 
     80 H80        30.6330   21.4272    1.4187 H         1 UNK         0.0705 
     81 H81        32.0564   22.7836    2.7415 H         1 UNK         0.1334 
     82 H82        34.6136   25.7214    0.9652 H         1 UNK         0.1417 
     83 H83        32.2299   23.1824   -1.5277 H         1 UNK         0.1562 
     84 H84        34.7676   24.7632   -2.0916 H         1 UNK         0.0748 
     85 H85        34.4016   26.2824   -1.3200 H         1 UNK         0.0748 
     86 H86        31.2339   25.8526   -0.9266 H         1 UNK         0.0940 
     87 H87        30.4241   25.4245   -2.3749 H         1 UNK         0.0940 
     88 H88        31.0563   27.9250   -3.1619 H         1 UNK         0.0703 
     89 H89        28.8616   28.0364   -3.1430 H         1 UNK         0.3081 
     90 H90        26.7333   28.3116   -2.2735 H         1 UNK         0.0719 
     91 H91        26.9078   25.9911   -3.2187 H         1 UNK         0.0809 
     92 H92        26.4726   25.3123   -1.6564 H         1 UNK         0.0809 
     93 H93        25.3095   26.2842   -2.5527 H         1 UNK         0.0809 
     94 H94        25.6828   26.8699    0.0451 H         1 UNK         0.2990 
     95 H95        25.9581   29.5711    2.2660 H         1 UNK         0.0690 
     96 H96        23.4906   29.4813    2.5766 H         1 UNK         0.0788 
     97 H97        23.3014   28.7761    0.9709 H         1 UNK         0.0788 
     98 H98        23.9314   30.4039    1.1489 H         1 UNK         0.0788 
     99 H99        26.0544   27.6187    3.2219 H         1 UNK         0.2993 
    100 H100       25.2979   25.6965    4.1043 H         1 UNK         0.0949 
    101 H101       23.7793   23.7719    2.2671 H         1 UNK         0.0767 
    102 H102       24.2214   23.4750    3.9466 H         1 UNK         0.0767 
    103 H103       23.0780   24.7478    3.5469 H         1 UNK         0.0767 
    104 H104       27.1182   24.5874    3.4734 H         1 UNK         0.3013 
    105 H105       32.5495   27.2710   -0.3835 H         1 UNK         0.3121 
    106 H106       32.8381   30.0662    0.3891 H         1 UNK         0.0774 
    107 H107       34.0268   27.6515    1.8197 H         1 UNK         0.0815 
    108 H108       34.7484   28.3413    0.3563 H         1 UNK         0.0815 
    109 H109       34.6035   29.3016    1.8179 H         1 UNK         0.0815 
    110 H110       30.5131   27.7151    1.2572 H         1 UNK         0.2987 
    111 H111       30.2958   28.2452    4.0614 H         1 UNK         0.0949 
    112 H112       29.4202   26.1870    2.9567 H         1 UNK         0.0806 
    113 H113       28.2162   27.0001    3.9429 H         1 UNK         0.0806 
    114 H114       28.1543   27.1459    2.1925 H         1 UNK         0.0806 
    115 H115       29.4257   30.1667    1.3530 H         1 UNK         0.3010 
    116 H116       27.4538   31.8918    2.4803 H         1 UNK         0.0829 
    117 H117       29.7234   32.4690    0.4890 H         1 UNK         0.0813 
    118 H118       28.3488   33.5228    0.7953 H         1 UNK         0.0813 
    119 H119       28.0955   31.9469    0.0693 H         1 UNK         0.0813 
    120 H120       30.9269   31.5596    3.0535 H         1 UNK         0.3038 
    121 H121       30.9081   33.8112    5.0218 H         1 UNK         0.0769 
    122 H122       32.5353   34.1090    3.1204 H         1 UNK         0.0811 
    123 H123       33.2652   32.5519    3.5114 H         1 UNK         0.0811 
    124 H124       33.3561   33.8856    4.6553 H         1 UNK         0.0811 
    125 H125       29.8926   30.9709    5.2400 H         1 UNK         0.3204 
    126 H126       29.8602   29.2125    6.5598 H         1 UNK         0.0748 
    127 H127       29.5652   31.0075    8.2857 H         1 UNK         0.0771 
    128 H128       30.3199   29.5738    8.9575 H         1 UNK         0.0771 
    129 H129       31.3002   30.9885    8.5993 H         1 UNK         0.0771 
    130 H130       32.2527   29.4255    4.7811 H         1 UNK         0.2980 
    131 H131       34.1175   28.4214    4.2762 H         1 UNK         0.0545 
    132 H132       35.7913   30.4401    7.0675 H         1 UNK         0.3459 
    133 H133       34.1565   30.6022    6.4698 H         1 UNK         0.3459 
    134 H134       33.3837   26.3524    6.4088 H         1 UNK         0.0616 
    135 H135       34.7621   26.1911    5.3673 H         1 UNK         0.0616 
    136 H136       33.9524   23.8718    4.0327 H         1 UNK         0.0634 
    137 H137       34.8491   25.1789    3.2957 H         1 UNK         0.0634 
@<TRIPOS>BOND
     1    1    2 1    
     2    1   72 1    
     3    1   73 1    
     4    1   74 1    
     5    2    3 2    
     6    2    4 am   BACKBONE|DICT|INTERRES
     7    4    5 1    
     8    4   75 1    
     9    5    6 1    
    10    5   35 1    
    11    5   76 1    
    12    6    7 1    
    13    6   77 1    
    14    6   78 1    
    15    7    8 1    
    16    8    9 1    
    17    8   79 1    
    18    8   80 1    
    19    9   10 ar   
    20    9   14 ar   
    21   10   11 ar   
    22   10   81 1    
    23   11   12 ar   
    24   11   71 1    
    25   12   13 ar   
    26   12   82 1    
    27   13   14 ar   
    28   13   15 1    
    29   14   83 1    
    30   15   16 1    
    31   15   84 1    
    32   15   85 1    
    33   16   17 1    
    34   17   18 1    
    35   17   86 1    
    36   17   87 1    
    37   18   19 1    
    38   18   37 1    
    39   18   88 1    
    40   19   20 am   BACKBONE|DICT|INTERRES
    41   19   89 1    
    42   20   21 2    
    43   20   22 1    
    44   22   23 1    
    45   22   24 1    
    46   22   90 1    
    47   23   91 1    
    48   23   92 1    
    49   23   93 1    
    50   24   25 am   BACKBONE|DICT|INTERRES
    51   24   94 1    
    52   25   26 2    
    53   25   27 1    
    54   27   28 1    
    55   27   29 1    
    56   27   95 1    
    57   28   96 1    
    58   28   97 1    
    59   28   98 1    
    60   29   30 am   BACKBONE|DICT|INTERRES
    61   29   99 1    
    62   30   31 2    
    63   30   32 1    
    64   32   33 1    
    65   32   34 1    
    66   32  100 1    
    67   33  101 1    
    68   33  102 1    
    69   33  103 1    
    70   34   35 am   BACKBONE|DICT|INTERRES
    71   34  104 1    
    72   35   36 2    
    73   37   38 2    
    74   37   39 am   BACKBONE|DICT|INTERRES
    75   39   40 1    
    76   39  105 1    
    77   40   41 1    
    78   40   42 1    
    79   40  106 1    
    80   41  107 1    
    81   41  108 1    
    82   41  109 1    
    83   42   43 2    
    84   42   44 am   BACKBONE|DICT|INTERRES
    85   44   45 1    
    86   44  110 1    
    87   45   46 1    
    88   45   47 1    
    89   45  111 1    
    90   46  112 1    
    91   46  113 1    
    92   46  114 1    
    93   47   48 2    
    94   47   49 am   BACKBONE|DICT|INTERRES
    95   49   50 1    
    96   49  115 1    
    97   50   51 1    
    98   50   52 1    
    99   50  116 1    
   100   51  117 1    
   101   51  118 1    
   102   51  119 1    
   103   52   53 2    
   104   52   54 am   BACKBONE|DICT|INTERRES
   105   54   55 1    
   106   54  120 1    
   107   55   56 1    
   108   55   57 1    
   109   55  121 1    
   110   56  122 1    
   111   56  123 1    
   112   56  124 1    
   113   57   58 2    
   114   57   59 am   BACKBONE|DICT|INTERRES
   115   59   60 1    
   116   59  125 1    
   117   60   61 1    
   118   60   62 1    
   119   60  126 1    
   120   61  127 1    
   121   61  128 1    
   122   61  129 1    
   123   62   63 2    
   124   62   64 am   BACKBONE|DICT|INTERRES
   125   64   65 1    
   126   64  130 1    
   127   65   66 1    
   128   65   69 1    
   129   65  131 1    
   130   66   67 am   BACKBONE|DICT|INTERRES
   131   66   68 2    
   132   67  132 1    
   133   67  133 1    
   134   69   70 1    
   135   69  134 1    
   136   69  135 1    
   137   70   71 1    
   138   71  136 1    
   139   71  137 1    
@<TRIPOS>SUBSTRUCTURE
     1 UNK         1 GROUP             0       ****    0 ROOT    
