@<TRIPOS>MOLECULE
3R136
137   139    1
SMALL
USER_CHARGES


@<TRIPOS>ATOM
      1 CA         23.9178   25.1581    3.9445 C.3       0 UNK        -0.1979 
      2 C          25.1728   24.7172    3.2072 C.2       0 UNK         0.4864 
      3 O          25.6239   25.4190    2.3042 O.2       0 UNK        -0.5359 
      4 N          25.7333   23.5592    3.5802 N.am      1 UNK        -0.4318 
      5 CA         26.9339   22.9399    3.0070 C.3       1 UNK         0.0824 
      6 C6         28.2472   23.6848    3.3899 C.3       12 UNK        -0.0944 
      7 S7         29.6038   22.5194    3.7347 S.3       12 UNK        -0.2672 
      8 C8         30.6136   22.6158    2.2173 C.3       12 UNK         0.0333 
      9 C9         31.6289   23.7578    2.1925 C.ar      12 UNK        -0.0807 
     10 C10        32.3044   24.1672    3.3514 C.ar      12 UNK        -0.0894 
     11 C11        33.2917   25.1572    3.3000 C.ar      12 UNK        -0.0804 
     12 C12        33.6016   25.7321    2.0629 C.ar      12 UNK        -0.0824 
     13 C13        32.9450   25.3361    0.8987 C.ar      12 UNK        -0.0762 
     14 C14        31.9537   24.3537    0.9685 C.ar      12 UNK        -0.0782 
     15 C15        33.3585   25.9505   -0.4296 C.3       12 UNK         0.0230 
     16 S16        32.6189   27.5947   -0.6732 S.3       12 UNK        -0.2608 
     17 C17        30.9997   27.1491   -1.3766 C.3       12 UNK        -0.0989 
     18 CA         29.8110   27.7862   -0.6182 C.3       5 UNK         0.0716 
     19 N          28.5957   27.7411   -1.4198 N.am      5 UNK        -0.4135 
     20 C          28.2509   28.6059   -2.3802 C.2       4 UNK         0.5031 
     21 O          28.9341   29.5810   -2.6957 O.2       4 UNK        -0.5229 
     22 CA         26.9365   28.3376   -3.1396 C.3       4 UNK         0.0329 
     23 CB         27.2317   27.8806   -4.5779 C.3       4 UNK        -0.2001 
     24 N          26.0967   27.3289   -2.4911 N.am      4 UNK        -0.4303 
     25 C          25.3219   27.5374   -1.4212 C.2       3 UNK         0.5044 
     26 O          25.1520   28.6423   -0.9056 O.2       3 UNK        -0.5152 
     27 CA         24.6574   26.2996   -0.7966 C.3       3 UNK         0.0319 
     28 CB         23.4306   25.8384   -1.6077 C.3       3 UNK        -0.2001 
     29 N          25.5954   25.1973   -0.5326 N.am      3 UNK        -0.4354 
     30 C          26.2427   24.4033   -1.4026 C.2       2 UNK         0.4964 
     31 O          26.1217   24.5015   -2.6247 O.2       2 UNK        -0.5047 
     32 CA         27.2127   23.3460   -0.8404 C.3       2 UNK         0.0288 
     33 CB         28.6018   23.4617   -1.4956 C.3       2 UNK        -0.2113 
     34 N          27.3630   23.4459    0.6137 N.am      2 UNK        -0.4145 
     35 C          26.7470   22.6481    1.4993 C.2       1 UNK         0.5006 
     36 O          26.0185   21.7084    1.1723 O.2       1 UNK        -0.5103 
     37 C          29.4959   27.0718    0.7048 C.2       5 UNK         0.5055 
     38 O          28.7633   26.0774    0.6899 O.2       5 UNK        -0.5220 
     39 N          30.0376   27.5907    1.8112 N.am      6 UNK        -0.4450 
     40 CA         29.8278   27.1232    3.1779 C.3       6 UNK         0.0367 
     41 CB         28.3581   27.3346    3.6018 C.3       6 UNK        -0.1929 
     42 C          30.7438   27.9180    4.1108 C.2       6 UNK         0.5070 
     43 O          31.2873   28.9509    3.7092 O.2       6 UNK        -0.5237 
     44 N          30.8227   27.4868    5.3768 N.am      7 UNK        -0.4739 
     45 CA         31.4674   28.2291    6.4693 C.3       7 UNK         0.0276 
     46 CB         31.4797   27.3642    7.7383 C.3       7 UNK        -0.1927 
     47 C          30.8094   29.5961    6.7454 C.2       7 UNK         0.5013 
     48 O          31.4975   30.5263    7.1635 O.2       7 UNK        -0.5193 
     49 N          29.5084   29.7129    6.4372 N.am      8 UNK        -0.4253 
     50 CA         28.7438   30.9644    6.4286 C.3       8 UNK         0.0242 
     51 CB         27.2535   30.6425    6.2320 C.3       8 UNK        -0.2000 
     52 C          29.2202   31.9739    5.3640 C.2       8 UNK         0.4948 
     53 O          29.0173   33.1739    5.5470 O.2       8 UNK        -0.5275 
     54 N          29.8740   31.4848    4.2998 N.am      9 UNK        -0.4246 
     55 CA         30.5495   32.2796    3.2708 C.3       9 UNK         0.0261 
     56 CB         30.2137   31.6940    1.8855 C.3       9 UNK        -0.1959 
     57 C          32.0698   32.3222    3.5297 C.2       9 UNK         0.5033 
     58 O          32.8532   32.3879    2.5801 O.2       9 UNK        -0.5390 
     59 N          32.4643   32.2382    4.8108 N.am      10 UNK        -0.4215 
     60 CA         33.8337   32.2249    5.3401 C.3       10 UNK         0.0240 
     61 CB         34.5270   33.5808    5.0860 C.3       10 UNK        -0.1982 
     62 C          34.6875   31.0318    4.8647 C.2       10 UNK         0.4970 
     63 O          35.9136   31.0969    4.9675 O.2       10 UNK        -0.4916 
     64 N          34.0419   29.9714    4.3560 N.am      11 UNK        -0.4279 
     65 CA         34.6788   28.8093    3.7219 C.3       11 UNK         0.1003 
     66 C          35.3999   29.1503    2.3783 C.2       11 UNK         0.5709 
     67 N          35.0454   30.2396    1.7030 N.am      11 UNK        -0.7358 
     68 O          36.2719   28.4155    1.9226 O.2       11 UNK        -0.4999 
     69 C69        35.5250   27.9832    4.7385 C.3       12 UNK        -0.0954 
     70 S70        35.7007   26.2060    4.3536 S.3       12 UNK        -0.2268 
     71 C71        34.0019   25.5732    4.5911 C.3       12 UNK         0.0203 
     72 H72        23.0889   25.2582    3.2443 H         1 UNK         0.0888 
     73 H73        23.6266   24.4475    4.7177 H         1 UNK         0.0888 
     74 H74        24.0835   26.1258    4.4171 H         1 UNK         0.0888 
     75 H75        25.2870   23.0188    4.3083 H         1 UNK         0.3017 
     76 H76        26.9629   21.9579    3.4826 H         1 UNK         0.0873 
     77 H77        28.0960   24.2460    4.3131 H         1 UNK         0.0745 
     78 H78        28.5540   24.4285    2.6582 H         1 UNK         0.0745 
     79 H79        29.9531   22.6684    1.3518 H         1 UNK         0.0705 
     80 H80        31.1649   21.6798    2.1204 H         1 UNK         0.0705 
     81 H81        32.0757   23.7005    4.2994 H         1 UNK         0.1334 
     82 H82        34.3736   26.4809    1.9831 H         1 UNK         0.1417 
     83 H83        31.4540   24.0334    0.0646 H         1 UNK         0.1562 
     84 H84        33.1065   25.2925   -1.2627 H         1 UNK         0.0748 
     85 H85        34.4444   26.0553   -0.4531 H         1 UNK         0.0748 
     86 H86        30.8853   26.0659   -1.4385 H         1 UNK         0.0940 
     87 H87        31.0105   27.4989   -2.4102 H         1 UNK         0.0940 
     88 H88        30.0345   28.8332   -0.3999 H         1 UNK         0.0703 
     89 H89        27.9661   26.9900   -1.1705 H         1 UNK         0.3081 
     90 H90        26.3848   29.2790   -3.1840 H         1 UNK         0.0719 
     91 H91        27.8330   28.6201   -5.1087 H         1 UNK         0.0809 
     92 H92        27.7810   26.9382   -4.5970 H         1 UNK         0.0809 
     93 H93        26.3120   27.7445   -5.1472 H         1 UNK         0.0809 
     94 H94        26.1706   26.3714   -2.8280 H         1 UNK         0.2990 
     95 H95        24.2943   26.6070    0.1854 H         1 UNK         0.0690 
     96 H96        22.9322   24.9975   -1.1254 H         1 UNK         0.0788 
     97 H97        23.6944   25.5354   -2.6211 H         1 UNK         0.0788 
     98 H98        22.6993   26.6431   -1.6929 H         1 UNK         0.0788 
     99 H99        25.7978   25.0776    0.4588 H         1 UNK         0.2993 
    100 H100       26.8004   22.3717   -1.1105 H         1 UNK         0.0949 
    101 H101       28.5395   23.3196   -2.5753 H         1 UNK         0.0767 
    102 H102       29.0526   24.4380   -1.3237 H         1 UNK         0.0767 
    103 H103       29.2847   22.7037   -1.1125 H         1 UNK         0.0767 
    104 H104       27.8843   24.2543    0.9434 H         1 UNK         0.3013 
    105 H105       30.6763   28.3747    1.7492 H         1 UNK         0.3121 
    106 H106       30.0993   26.0690    3.2364 H         1 UNK         0.0774 
    107 H107       27.6697   26.8052    2.9472 H         1 UNK         0.0815 
    108 H108       28.1729   26.9651    4.6106 H         1 UNK         0.0815 
    109 H109       28.0806   28.3891    3.5788 H         1 UNK         0.0815 
    110 H110       30.3519   26.6295    5.6305 H         1 UNK         0.2987 
    111 H111       32.5020   28.4218    6.1801 H         1 UNK         0.0949 
    112 H112       32.0198   26.4309    7.5772 H         1 UNK         0.0806 
    113 H113       31.9750   27.8846    8.5595 H         1 UNK         0.0806 
    114 H114       30.4707   27.1168    8.0706 H         1 UNK         0.0806 
    115 H115       29.0241   28.8851    6.1238 H         1 UNK         0.3010 
    116 H116       28.8685   31.4376    7.4051 H         1 UNK         0.0829 
    117 H117       26.8795   29.9908    7.0220 H         1 UNK         0.0813 
    118 H118       26.6521   31.5526    6.2551 H         1 UNK         0.0813 
    119 H119       27.0667   30.1540    5.2749 H         1 UNK         0.0813 
    120 H120       30.0505   30.4876    4.2496 H         1 UNK         0.3038 
    121 H121       30.1916   33.3108    3.2961 H         1 UNK         0.0769 
    122 H122       30.6199   32.3182    1.0886 H         1 UNK         0.0811 
    123 H123       29.1366   31.6331    1.7298 H         1 UNK         0.0811 
    124 H124       30.6292   30.6946    1.7573 H         1 UNK         0.0811 
    125 H125       31.7444   32.1237    5.5134 H         1 UNK         0.3204 
    126 H126       33.7346   32.1040    6.4198 H         1 UNK         0.0748 
    127 H127       35.4835   33.6381    5.6071 H         1 UNK         0.0771 
    128 H128       34.7253   33.7410    4.0256 H         1 UNK         0.0771 
    129 H129       33.9175   34.4111    5.4426 H         1 UNK         0.0771 
    130 H130       33.0330   30.0005    4.2709 H         1 UNK         0.2980 
    131 H131       33.8341   28.1915    3.4257 H         1 UNK         0.0545 
    132 H132       35.5060   30.4469    0.8318 H         1 UNK         0.3459 
    133 H133       34.3269   30.8614    2.0535 H         1 UNK         0.3459 
    134 H134       36.5234   28.4119    4.8381 H         1 UNK         0.0616 
    135 H135       35.0806   28.0448    5.7332 H         1 UNK         0.0616 
    136 H136       34.0649   24.7153    5.2622 H         1 UNK         0.0634 
    137 H137       33.3965   26.3177    5.1064 H         1 UNK         0.0634 
@<TRIPOS>BOND
     1    1    2 1    
     2    1   72 1    
     3    1   73 1    
     4    1   74 1    
     5    2    3 2    
     6    2    4 am   BACKBONE|DICT|INTERRES
     7    4    5 1    
     8    4   75 1    
     9    5    6 1    
    10    5   35 1    
    11    5   76 1    
    12    6    7 1    
    13    6   77 1    
    14    6   78 1    
    15    7    8 1    
    16    8    9 1    
    17    8   79 1    
    18    8   80 1    
    19    9   10 ar   
    20    9   14 ar   
    21   10   11 ar   
    22   10   81 1    
    23   11   12 ar   
    24   11   71 1    
    25   12   13 ar   
    26   12   82 1    
    27   13   14 ar   
    28   13   15 1    
    29   14   83 1    
    30   15   16 1    
    31   15   84 1    
    32   15   85 1    
    33   16   17 1    
    34   17   18 1    
    35   17   86 1    
    36   17   87 1    
    37   18   19 1    
    38   18   37 1    
    39   18   88 1    
    40   19   20 am   BACKBONE|DICT|INTERRES
    41   19   89 1    
    42   20   21 2    
    43   20   22 1    
    44   22   23 1    
    45   22   24 1    
    46   22   90 1    
    47   23   91 1    
    48   23   92 1    
    49   23   93 1    
    50   24   25 am   BACKBONE|DICT|INTERRES
    51   24   94 1    
    52   25   26 2    
    53   25   27 1    
    54   27   28 1    
    55   27   29 1    
    56   27   95 1    
    57   28   96 1    
    58   28   97 1    
    59   28   98 1    
    60   29   30 am   BACKBONE|DICT|INTERRES
    61   29   99 1    
    62   30   31 2    
    63   30   32 1    
    64   32   33 1    
    65   32   34 1    
    66   32  100 1    
    67   33  101 1    
    68   33  102 1    
    69   33  103 1    
    70   34   35 am   BACKBONE|DICT|INTERRES
    71   34  104 1    
    72   35   36 2    
    73   37   38 2    
    74   37   39 am   BACKBONE|DICT|INTERRES
    75   39   40 1    
    76   39  105 1    
    77   40   41 1    
    78   40   42 1    
    79   40  106 1    
    80   41  107 1    
    81   41  108 1    
    82   41  109 1    
    83   42   43 2    
    84   42   44 am   BACKBONE|DICT|INTERRES
    85   44   45 1    
    86   44  110 1    
    87   45   46 1    
    88   45   47 1    
    89   45  111 1    
    90   46  112 1    
    91   46  113 1    
    92   46  114 1    
    93   47   48 2    
    94   47   49 am   BACKBONE|DICT|INTERRES
    95   49   50 1    
    96   49  115 1    
    97   50   51 1    
    98   50   52 1    
    99   50  116 1    
   100   51  117 1    
   101   51  118 1    
   102   51  119 1    
   103   52   53 2    
   104   52   54 am   BACKBONE|DICT|INTERRES
   105   54   55 1    
   106   54  120 1    
   107   55   56 1    
   108   55   57 1    
   109   55  121 1    
   110   56  122 1    
   111   56  123 1    
   112   56  124 1    
   113   57   58 2    
   114   57   59 am   BACKBONE|DICT|INTERRES
   115   59   60 1    
   116   59  125 1    
   117   60   61 1    
   118   60   62 1    
   119   60  126 1    
   120   61  127 1    
   121   61  128 1    
   122   61  129 1    
   123   62   63 2    
   124   62   64 am   BACKBONE|DICT|INTERRES
   125   64   65 1    
   126   64  130 1    
   127   65   66 1    
   128   65   69 1    
   129   65  131 1    
   130   66   67 am   BACKBONE|DICT|INTERRES
   131   66   68 2    
   132   67  132 1    
   133   67  133 1    
   134   69   70 1    
   135   69  134 1    
   136   69  135 1    
   137   70   71 1    
   138   71  136 1    
   139   71  137 1    
@<TRIPOS>SUBSTRUCTURE
     1 UNK         1 GROUP             0       ****    0 ROOT    
