@<TRIPOS>MOLECULE
3R136
137   139    1
SMALL
USER_CHARGES


@<TRIPOS>ATOM
      1 CA         30.3253   17.3423   -0.7673 C.3       0 UNK        -0.1979 
      2 C          29.8214   18.7438   -0.4544 C.2       0 UNK         0.4864 
      3 O          28.7932   19.1537   -0.9953 O.2       0 UNK        -0.5359 
      4 N          30.5398   19.4712    0.4130 N.am      1 UNK        -0.4318 
      5 CA         30.2598   20.8460    0.8473 C.3       1 UNK         0.0824 
      6 C6         28.9661   20.9810    1.7048 C.3       12 UNK        -0.0944 
      7 S7         29.0187   20.0309    3.2619 S.3       12 UNK        -0.2672 
      8 C8         30.2334   20.9524    4.2679 C.3       12 UNK         0.0333 
      9 C9         29.9833   22.4556    4.2888 C.ar      12 UNK        -0.0807 
     10 C10        30.8500   23.3203    3.6137 C.ar      12 UNK        -0.0894 
     11 C11        30.6385   24.7021    3.6181 C.ar      12 UNK        -0.0804 
     12 C12        29.5500   25.2154    4.3377 C.ar      12 UNK        -0.0824 
     13 C13        28.6618   24.3625    5.0001 C.ar      12 UNK        -0.0762 
     14 C14        28.8865   22.9825    4.9754 C.ar      12 UNK        -0.0782 
     15 C15        27.4620   24.9282    5.7481 C.3       12 UNK         0.0230 
     16 S16        26.1519   25.4919    4.6087 S.3       12 UNK        -0.2608 
     17 C17        26.4840   27.2835    4.4746 C.3       12 UNK        -0.0989 
     18 CA         27.0336   27.7009    3.0866 C.3       5 UNK         0.0716 
     19 N          26.0779   27.4542    2.0055 N.am      5 UNK        -0.4135 
     20 C          26.4164   27.3317    0.7172 C.2       4 UNK         0.5031 
     21 O          27.5800   27.3711    0.3044 O.2       4 UNK        -0.5229 
     22 CA         25.2707   27.1611   -0.2846 C.3       4 UNK         0.0329 
     23 CB         24.6910   28.5242   -0.7031 C.3       4 UNK        -0.2001 
     24 N          25.8124   26.4687   -1.4460 N.am      4 UNK        -0.4303 
     25 C          25.1333   25.6956   -2.2983 C.2       3 UNK         0.5044 
     26 O          23.9085   25.5658   -2.2820 O.2       3 UNK        -0.5152 
     27 CA         25.9634   24.9156   -3.3377 C.3       3 UNK         0.0319 
     28 CB         26.0094   25.6807   -4.6704 C.3       3 UNK        -0.2001 
     29 N          27.3356   24.6111   -2.9067 N.am      3 UNK        -0.4354 
     30 C          27.6550   23.8375   -1.8593 C.2       2 UNK         0.4964 
     31 O          26.8219   23.2878   -1.1321 O.2       2 UNK        -0.5047 
     32 CA         29.1516   23.6623   -1.5662 C.3       2 UNK         0.0288 
     33 CB         29.7946   24.9746   -1.0756 C.3       2 UNK        -0.2113 
     34 N          29.2905   22.6424   -0.5347 N.am      2 UNK        -0.4145 
     35 C          30.3371   21.8347   -0.3398 C.2       1 UNK         0.5006 
     36 O          31.3553   21.8592   -1.0357 O.2       1 UNK        -0.5103 
     37 C          27.4590   29.1823    3.0679 C.2       5 UNK         0.5055 
     38 O          26.8839   29.9990    3.7914 O.2       5 UNK        -0.5220 
     39 N          28.4492   29.5071    2.2290 N.am      6 UNK        -0.4450 
     40 CA         29.0541   30.8320    2.0765 C.3       6 UNK         0.0367 
     41 CB         29.7807   30.8784    0.7198 C.3       6 UNK        -0.1929 
     42 C          29.9866   31.1694    3.2564 C.2       6 UNK         0.5070 
     43 O          31.1954   31.3208    3.0647 O.2       6 UNK        -0.5237 
     44 N          29.4136   31.2335    4.4650 N.am      7 UNK        -0.4739 
     45 CA         30.0943   31.4795    5.7386 C.3       7 UNK         0.0276 
     46 CB         29.0571   31.4796    6.8723 C.3       7 UNK        -0.1927 
     47 C          30.8942   32.7907    5.7336 C.2       7 UNK         0.5013 
     48 O          30.3539   33.8280    5.3437 O.2       7 UNK        -0.5193 
     49 N          32.1722   32.7054    6.1256 N.am      8 UNK        -0.4253 
     50 CA         33.2019   33.7548    6.1526 C.3       8 UNK         0.0242 
     51 CB         32.7831   34.9526    7.0282 C.3       8 UNK        -0.2000 
     52 C          33.6770   34.2148    4.7614 C.2       8 UNK         0.4948 
     53 O          34.8561   34.5386    4.6153 O.2       8 UNK        -0.5275 
     54 N          32.7805   34.2193    3.7661 N.am      9 UNK        -0.4246 
     55 CA         33.0734   34.5094    2.3620 C.3       9 UNK         0.0261 
     56 CB         31.7563   34.6837    1.5894 C.3       9 UNK        -0.1959 
     57 C          33.9567   33.4333    1.7074 C.2       9 UNK         0.5033 
     58 O          34.8567   33.7817    0.9411 O.2       9 UNK        -0.5390 
     59 N          33.7007   32.1597    2.0323 N.am      10 UNK        -0.4215 
     60 CA         34.4901   31.0128    1.5834 C.3       10 UNK         0.0240 
     61 CB         33.9565   30.4889    0.2381 C.3       10 UNK        -0.1982 
     62 C          34.5256   29.8970    2.6357 C.2       10 UNK         0.4970 
     63 O          35.5982   29.3438    2.8820 O.2       10 UNK        -0.4916 
     64 N          33.3695   29.5743    3.2274 N.am      11 UNK        -0.4279 
     65 CA         33.2205   28.5214    4.2399 C.3       11 UNK         0.1003 
     66 C          33.6788   29.0095    5.6384 C.2       11 UNK         0.5709 
     67 N          34.3542   28.1640    6.4038 N.am      11 UNK        -0.7358 
     68 O          33.3880   30.1306    6.0528 O.2       11 UNK        -0.4999 
     69 C69        31.7712   27.9709    4.2949 C.3       12 UNK        -0.0954 
     70 S70        31.1910   27.3453    2.6823 S.3       12 UNK        -0.2268 
     71 C71        31.6115   25.5745    2.8194 C.3       12 UNK         0.0203 
     72 H72        29.5674   16.6045   -0.5051 H         1 UNK         0.0888 
     73 H73        30.5383   17.2494   -1.8320 H         1 UNK         0.0888 
     74 H74        31.2353   17.1028   -0.2173 H         1 UNK         0.0888 
     75 H75        31.3850   19.0713    0.7954 H         1 UNK         0.3017 
     76 H76        31.1006   21.1250    1.4821 H         1 UNK         0.0873 
     77 H77        28.7642   22.0217    1.9621 H         1 UNK         0.0745 
     78 H78        28.0951   20.6432    1.1409 H         1 UNK         0.0745 
     79 H79        31.2363   20.7342    3.8981 H         1 UNK         0.0705 
     80 H80        30.2027   20.5701    5.2892 H         1 UNK         0.0705 
     81 H81        31.6953   22.9163    3.0735 H         1 UNK         0.1334 
     82 H82        29.3745   26.2785    4.3836 H         1 UNK         0.1417 
     83 H83        28.2068   22.3133    5.4859 H         1 UNK         0.1562 
     84 H84        27.7805   25.7341    6.4101 H         1 UNK         0.0748 
     85 H85        27.0353   24.1649    6.4006 H         1 UNK         0.0748 
     86 H86        27.1784   27.5830    5.2614 H         1 UNK         0.0940 
     87 H87        25.5537   27.8128    4.6908 H         1 UNK         0.0940 
     88 H88        27.9244   27.1026    2.8893 H         1 UNK         0.0703 
     89 H89        25.1032   27.4285    2.2673 H         1 UNK         0.3081 
     90 H90        24.4912   26.5476    0.1727 H         1 UNK         0.0719 
     91 H91        24.2886   29.0609    0.1569 H         1 UNK         0.0809 
     92 H92        25.4505   29.1601   -1.1599 H         1 UNK         0.0809 
     93 H93        23.8782   28.4068   -1.4199 H         1 UNK         0.0809 
     94 H94        26.8236   26.4965   -1.4989 H         1 UNK         0.2990 
     95 H95        25.4542   23.9647   -3.5084 H         1 UNK         0.0690 
     96 H96        26.5317   26.6332   -4.5716 H         1 UNK         0.0788 
     97 H97        25.0026   25.8975   -5.0307 H         1 UNK         0.0788 
     98 H98        26.5100   25.1002   -5.4457 H         1 UNK         0.0788 
     99 H99        28.0801   25.0259   -3.4493 H         1 UNK         0.2993 
    100 H100       29.6413   23.3247   -2.4824 H         1 UNK         0.0949 
    101 H101       29.3379   25.3227   -0.1479 H         1 UNK         0.0767 
    102 H102       30.8613   24.8471   -0.8901 H         1 UNK         0.0767 
    103 H103       29.6905   25.7727   -1.8112 H         1 UNK         0.0767 
    104 H104       28.4477   22.5067    0.0103 H         1 UNK         0.3013 
    105 H105       28.8273   28.7710    1.6447 H         1 UNK         0.3121 
    106 H106       28.2616   31.5832    2.0610 H         1 UNK         0.0774 
    107 H107       30.2520   31.8474    0.5545 H         1 UNK         0.0815 
    108 H108       30.5608   30.1193    0.6582 H         1 UNK         0.0815 
    109 H109       29.0882   30.7117   -0.1053 H         1 UNK         0.0815 
    110 H110       28.4140   31.0619    4.5074 H         1 UNK         0.2987 
    111 H111       30.7806   30.6498    5.9091 H         1 UNK         0.0949 
    112 H112       28.5248   30.5296    6.9245 H         1 UNK         0.0806 
    113 H113       29.5360   31.6363    7.8399 H         1 UNK         0.0806 
    114 H114       28.3187   32.2718    6.7413 H         1 UNK         0.0806 
    115 H115       32.5346   31.7726    6.3183 H         1 UNK         0.3010 
    116 H116       34.0665   33.2904    6.6300 H         1 UNK         0.0829 
    117 H117       32.4929   34.6310    8.0283 H         1 UNK         0.0813 
    118 H118       33.6091   35.6560    7.1407 H         1 UNK         0.0813 
    119 H119       31.9483   35.5051    6.5966 H         1 UNK         0.0813 
    120 H120       31.8226   33.9816    4.0034 H         1 UNK         0.3038 
    121 H121       33.6194   35.4544    2.3221 H         1 UNK         0.0769 
    122 H122       31.1766   35.5201    1.9803 H         1 UNK         0.0811 
    123 H123       31.9449   34.8850    0.5340 H         1 UNK         0.0811 
    124 H124       31.1336   33.7911    1.6470 H         1 UNK         0.0811 
    125 H125       32.9002   31.9628    2.6296 H         1 UNK         0.3204 
    126 H126       35.5241   31.3337    1.4377 H         1 UNK         0.0748 
    127 H127       34.0136   31.2539   -0.5363 H         1 UNK         0.0771 
    128 H128       34.5392   29.6338   -0.1070 H         1 UNK         0.0771 
    129 H129       32.9181   30.1672    0.3151 H         1 UNK         0.0771 
    130 H130       32.5265   30.1024    3.0194 H         1 UNK         0.2980 
    131 H131       33.8674   27.6911    3.9492 H         1 UNK         0.0545 
    132 H132       34.5890   27.2383    6.0812 H         1 UNK         0.3459 
    133 H133       34.6439   28.4627    7.3217 H         1 UNK         0.3459 
    134 H134       31.6958   27.1713    5.0341 H         1 UNK         0.0616 
    135 H135       31.0754   28.7441    4.6181 H         1 UNK         0.0616 
    136 H136       32.6121   25.4786    3.2429 H         1 UNK         0.0634 
    137 H137       31.6692   25.1785    1.8043 H         1 UNK         0.0634 
@<TRIPOS>BOND
     1    1    2 1    
     2    1   72 1    
     3    1   73 1    
     4    1   74 1    
     5    2    3 2    
     6    2    4 am   BACKBONE|DICT|INTERRES
     7    4    5 1    
     8    4   75 1    
     9    5    6 1    
    10    5   35 1    
    11    5   76 1    
    12    6    7 1    
    13    6   77 1    
    14    6   78 1    
    15    7    8 1    
    16    8    9 1    
    17    8   79 1    
    18    8   80 1    
    19    9   10 ar   
    20    9   14 ar   
    21   10   11 ar   
    22   10   81 1    
    23   11   12 ar   
    24   11   71 1    
    25   12   13 ar   
    26   12   82 1    
    27   13   14 ar   
    28   13   15 1    
    29   14   83 1    
    30   15   16 1    
    31   15   84 1    
    32   15   85 1    
    33   16   17 1    
    34   17   18 1    
    35   17   86 1    
    36   17   87 1    
    37   18   19 1    
    38   18   37 1    
    39   18   88 1    
    40   19   20 am   BACKBONE|DICT|INTERRES
    41   19   89 1    
    42   20   21 2    
    43   20   22 1    
    44   22   23 1    
    45   22   24 1    
    46   22   90 1    
    47   23   91 1    
    48   23   92 1    
    49   23   93 1    
    50   24   25 am   BACKBONE|DICT|INTERRES
    51   24   94 1    
    52   25   26 2    
    53   25   27 1    
    54   27   28 1    
    55   27   29 1    
    56   27   95 1    
    57   28   96 1    
    58   28   97 1    
    59   28   98 1    
    60   29   30 am   BACKBONE|DICT|INTERRES
    61   29   99 1    
    62   30   31 2    
    63   30   32 1    
    64   32   33 1    
    65   32   34 1    
    66   32  100 1    
    67   33  101 1    
    68   33  102 1    
    69   33  103 1    
    70   34   35 am   BACKBONE|DICT|INTERRES
    71   34  104 1    
    72   35   36 2    
    73   37   38 2    
    74   37   39 am   BACKBONE|DICT|INTERRES
    75   39   40 1    
    76   39  105 1    
    77   40   41 1    
    78   40   42 1    
    79   40  106 1    
    80   41  107 1    
    81   41  108 1    
    82   41  109 1    
    83   42   43 2    
    84   42   44 am   BACKBONE|DICT|INTERRES
    85   44   45 1    
    86   44  110 1    
    87   45   46 1    
    88   45   47 1    
    89   45  111 1    
    90   46  112 1    
    91   46  113 1    
    92   46  114 1    
    93   47   48 2    
    94   47   49 am   BACKBONE|DICT|INTERRES
    95   49   50 1    
    96   49  115 1    
    97   50   51 1    
    98   50   52 1    
    99   50  116 1    
   100   51  117 1    
   101   51  118 1    
   102   51  119 1    
   103   52   53 2    
   104   52   54 am   BACKBONE|DICT|INTERRES
   105   54   55 1    
   106   54  120 1    
   107   55   56 1    
   108   55   57 1    
   109   55  121 1    
   110   56  122 1    
   111   56  123 1    
   112   56  124 1    
   113   57   58 2    
   114   57   59 am   BACKBONE|DICT|INTERRES
   115   59   60 1    
   116   59  125 1    
   117   60   61 1    
   118   60   62 1    
   119   60  126 1    
   120   61  127 1    
   121   61  128 1    
   122   61  129 1    
   123   62   63 2    
   124   62   64 am   BACKBONE|DICT|INTERRES
   125   64   65 1    
   126   64  130 1    
   127   65   66 1    
   128   65   69 1    
   129   65  131 1    
   130   66   67 am   BACKBONE|DICT|INTERRES
   131   66   68 2    
   132   67  132 1    
   133   67  133 1    
   134   69   70 1    
   135   69  134 1    
   136   69  135 1    
   137   70   71 1    
   138   71  136 1    
   139   71  137 1    
@<TRIPOS>SUBSTRUCTURE
     1 UNK         1 GROUP             0       ****    0 ROOT    
