@<TRIPOS>MOLECULE
3R136
137   139    1
SMALL
USER_CHARGES


@<TRIPOS>ATOM
      1 CA         26.2909   27.0146    6.0063 C.3       0 UNK        -0.1979 
      2 C          26.3673   26.0241    4.8543 C.2       0 UNK         0.4864 
      3 O          25.5612   25.0940    4.7897 O.2       0 UNK        -0.5359 
      4 N          27.3176   26.2188    3.9318 N.am      1 UNK        -0.4318 
      5 CA         27.5846   25.3645    2.7673 C.3       1 UNK         0.0824 
      6 C6         29.0436   25.5292    2.2675 C.3       12 UNK        -0.0944 
      7 S7         30.2709   25.1168    3.5550 S.3       12 UNK        -0.2672 
      8 C8         31.5700   24.2748    2.5975 C.3       12 UNK         0.0333 
      9 C9         32.3530   25.2509    1.7307 C.ar      12 UNK        -0.0807 
     10 C10        33.4769   25.9053    2.2445 C.ar      12 UNK        -0.0894 
     11 C11        34.1978   26.8049    1.4542 C.ar      12 UNK        -0.0804 
     12 C12        33.7958   27.0385    0.1356 C.ar      12 UNK        -0.0824 
     13 C13        32.6755   26.3880   -0.3910 C.ar      12 UNK        -0.0762 
     14 C14        31.9626   25.4911    0.4102 C.ar      12 UNK        -0.0782 
     15 C15        32.2498   26.6293   -1.8327 C.3       12 UNK         0.0230 
     16 S16        31.7712   28.3566   -2.1621 S.3       12 UNK        -0.2608 
     17 C17        30.3513   28.6394   -1.0495 C.3       12 UNK        -0.0989 
     18 CA         28.9925   28.4717   -1.7790 C.3       5 UNK         0.0716 
     19 N          28.6616   27.0550   -1.9725 N.am      5 UNK        -0.4135 
     20 C          27.6913   26.5760   -2.7623 C.2       4 UNK         0.5031 
     21 O          26.8716   27.2817   -3.3508 O.2       4 UNK        -0.5229 
     22 CA         27.6445   25.0538   -2.9621 C.3       4 UNK         0.0329 
     23 CB         28.9924   24.3387   -2.7315 C.3       4 UNK        -0.2001 
     24 N          26.6277   24.4685   -2.0938 N.am      4 UNK        -0.4303 
     25 C          25.8198   23.4569   -2.4435 C.2       3 UNK         0.5044 
     26 O          25.8283   22.9347   -3.5596 O.2       3 UNK        -0.5152 
     27 CA         24.8517   22.8978   -1.3806 C.3       3 UNK         0.0319 
     28 CB         25.3121   21.5057   -0.9163 C.3       3 UNK        -0.2001 
     29 N          24.6985   23.7562   -0.2054 N.am      3 UNK        -0.4354 
     30 C          24.0367   24.9202   -0.1866 C.2       2 UNK         0.4964 
     31 O          23.4126   25.3681   -1.1486 O.2       2 UNK        -0.5047 
     32 CA         24.0952   25.7361    1.1164 C.3       2 UNK         0.0288 
     33 CB         22.8144   25.5265    1.9396 C.3       2 UNK        -0.2113 
     34 N          25.2594   25.4652    1.9715 N.am      2 UNK        -0.4145 
     35 C          26.5515   25.6078    1.6424 C.2       1 UNK         0.5006 
     36 O          26.9283   25.9341    0.5130 O.2       1 UNK        -0.5103 
     37 C          27.8925   29.2955   -1.0750 C.2       5 UNK         0.5055 
     38 O          27.8444   30.5076   -1.2918 O.2       5 UNK        -0.5220 
     39 N          27.0533   28.6530   -0.2465 N.am      6 UNK        -0.4450 
     40 CA         25.9978   29.2623    0.5776 C.3       6 UNK         0.0367 
     41 CB         24.8444   29.7893   -0.3011 C.3       6 UNK        -0.1929 
     42 C          26.5425   30.3090    1.5698 C.2       6 UNK         0.5070 
     43 O          25.9528   31.3763    1.7466 O.2       6 UNK        -0.5237 
     44 N          27.6698   29.9667    2.1983 N.am      7 UNK        -0.4739 
     45 CA         28.3759   30.7481    3.2073 C.3       7 UNK         0.0276 
     46 CB         29.5186   31.5240    2.5272 C.3       7 UNK        -0.1927 
     47 C          28.9127   29.7825    4.2717 C.2       7 UNK         0.5013 
     48 O          28.8334   28.5644    4.0848 O.2       7 UNK        -0.5193 
     49 N          29.4481   30.3333    5.3685 N.am      8 UNK        -0.4253 
     50 CA         30.1072   29.5717    6.4334 C.3       8 UNK         0.0242 
     51 CB         30.4439   30.5153    7.5999 C.3       8 UNK        -0.2000 
     52 C          31.3787   28.8699    5.9248 C.2       8 UNK         0.4948 
     53 O          32.1010   29.4405    5.1051 O.2       8 UNK        -0.5275 
     54 N          31.6367   27.6611    6.4421 N.am      9 UNK        -0.4246 
     55 CA         32.7311   26.7863    6.0070 C.3       9 UNK         0.0261 
     56 CB         32.5380   25.3887    6.6178 C.3       9 UNK        -0.1959 
     57 C          34.1432   27.3142    6.3177 C.2       9 UNK         0.5033 
     58 O          35.0987   26.9039    5.6563 O.2       9 UNK        -0.5390 
     59 N          34.2611   28.2071    7.3091 N.am      10 UNK        -0.4215 
     60 CA         35.5028   28.8627    7.7226 C.3       10 UNK         0.0240 
     61 CB         35.3469   29.3472    9.1769 C.3       10 UNK        -0.1982 
     62 C          35.8955   29.9977    6.7555 C.2       10 UNK         0.4970 
     63 O          35.9278   31.1639    7.1541 O.2       10 UNK        -0.4916 
     64 N          36.1642   29.6351    5.4963 N.am      11 UNK        -0.4279 
     65 CA         36.6146   30.5372    4.4269 C.3       11 UNK         0.1003 
     66 C          37.9956   31.1833    4.7275 C.2       11 UNK         0.5709 
     67 N          38.2054   32.4236    4.3073 N.am      11 UNK        -0.7358 
     68 O          38.8888   30.5576    5.2970 O.2       11 UNK        -0.4999 
     69 C69        36.6413   29.8238    3.0507 C.3       12 UNK        -0.0954 
     70 S70        35.0015   29.2115    2.5385 S.3       12 UNK        -0.2268 
     71 C71        35.4152   27.5191    2.0196 C.3       12 UNK         0.0203 
     72 H72        26.3230   26.4853    6.9582 H         1 UNK         0.0888 
     73 H73        27.1162   27.7251    5.9884 H         1 UNK         0.0888 
     74 H74        25.3578   27.5750    5.9577 H         1 UNK         0.0888 
     75 H75        27.9423   27.0203    4.0274 H         1 UNK         0.3017 
     76 H76        27.4621   24.3239    3.0755 H         1 UNK         0.0873 
     77 H77        29.2300   26.5516    1.9328 H         1 UNK         0.0745 
     78 H78        29.2113   24.8831    1.4048 H         1 UNK         0.0745 
     79 H79        31.1286   23.4843    1.9887 H         1 UNK         0.0705 
     80 H80        32.2473   23.7775    3.2937 H         1 UNK         0.0705 
     81 H81        33.7946   25.7132    3.2596 H         1 UNK         0.1334 
     82 H82        34.3511   27.7332   -0.4803 H         1 UNK         0.1417 
     83 H83        31.1054   24.9727    0.0058 H         1 UNK         0.1562 
     84 H84        31.4282   25.9724   -2.1137 H         1 UNK         0.0748 
     85 H85        33.0803   26.3688   -2.4903 H         1 UNK         0.0748 
     86 H86        30.4689   29.6589   -0.6749 H         1 UNK         0.0940 
     87 H87        30.4123   27.9993   -0.1678 H         1 UNK         0.0940 
     88 H88        29.0863   28.9099   -2.7754 H         1 UNK         0.0703 
     89 H89        29.2651   26.3922   -1.5136 H         1 UNK         0.3081 
     90 H90        27.3656   24.9040   -4.0075 H         1 UNK         0.0719 
     91 H91        28.9258   23.2886   -3.0169 H         1 UNK         0.0809 
     92 H92        29.7809   24.7801   -3.3421 H         1 UNK         0.0809 
     93 H93        29.3056   24.3705   -1.6877 H         1 UNK         0.0809 
     94 H94        26.5423   24.8790   -1.1691 H         1 UNK         0.2990 
     95 H95        23.8743   22.7927   -1.8566 H         1 UNK         0.0690 
     96 H96        26.2869   21.5447   -0.4283 H         1 UNK         0.0788 
     97 H97        25.3984   20.8202   -1.7607 H         1 UNK         0.0788 
     98 H98        24.6018   21.0646   -0.2166 H         1 UNK         0.0788 
     99 H99        25.1691   23.4616    0.6375 H         1 UNK         0.2993 
    100 H100       24.1363   26.7846    0.8207 H         1 UNK         0.0949 
    101 H101       22.7269   24.4982    2.2929 H         1 UNK         0.0767 
    102 H102       22.7901   26.1833    2.8095 H         1 UNK         0.0767 
    103 H103       21.9255   25.7453    1.3458 H         1 UNK         0.0767 
    104 H104       25.0669   25.2120    2.9381 H         1 UNK         0.3013 
    105 H105       27.1606   27.6466   -0.1365 H         1 UNK         0.3121 
    106 H106       25.5963   28.4653    1.2011 H         1 UNK         0.0774 
    107 H107       25.1577   30.6316   -0.9185 H         1 UNK         0.0815 
    108 H108       24.0095   30.1293    0.3126 H         1 UNK         0.0815 
    109 H109       24.4646   29.0108   -0.9629 H         1 UNK         0.0815 
    110 H110       28.0501   29.0406    2.0557 H         1 UNK         0.2987 
    111 H111       27.6885   31.4445    3.6929 H         1 UNK         0.0949 
    112 H112       30.2499   30.8500    2.0785 H         1 UNK         0.0806 
    113 H113       29.1395   32.1758    1.7397 H         1 UNK         0.0806 
    114 H114       30.0506   32.1550    3.2399 H         1 UNK         0.0806 
    115 H115       29.5017   31.3391    5.4333 H         1 UNK         0.3010 
    116 H116       29.4035   28.8148    6.7868 H         1 UNK         0.0829 
    117 H117       30.9016   29.9698    8.4262 H         1 UNK         0.0813 
    118 H118       31.1438   31.2959    7.2980 H         1 UNK         0.0813 
    119 H119       29.5487   30.9992    7.9913 H         1 UNK         0.0813 
    120 H120       30.9960   27.2742    7.1203 H         1 UNK         0.3038 
    121 H121       32.6515   26.7004    4.9229 H         1 UNK         0.0769 
    122 H122       32.5958   25.4117    7.7067 H         1 UNK         0.0811 
    123 H123       33.3070   24.7002    6.2644 H         1 UNK         0.0811 
    124 H124       31.5743   24.9615    6.3405 H         1 UNK         0.0811 
    125 H125       33.4162   28.5067    7.7724 H         1 UNK         0.3204 
    126 H126       36.3110   28.1283    7.7038 H         1 UNK         0.0748 
    127 H127       35.1307   28.5175    9.8503 H         1 UNK         0.0771 
    128 H128       36.2646   29.8184    9.5319 H         1 UNK         0.0771 
    129 H129       34.5441   30.0790    9.2771 H         1 UNK         0.0771 
    130 H130       36.0606   28.6565    5.2516 H         1 UNK         0.2980 
    131 H131       35.8808   31.3439    4.3715 H         1 UNK         0.0545 
    132 H132       39.1007   32.8540    4.4791 H         1 UNK         0.3459 
    133 H133       37.4852   32.9407    3.8273 H         1 UNK         0.3459 
    134 H134       36.9871   30.5068    2.2725 H         1 UNK         0.0616 
    135 H135       37.3547   28.9976    3.0689 H         1 UNK         0.0616 
    136 H136       36.2038   27.5531    1.2663 H         1 UNK         0.0634 
    137 H137       35.8198   26.9700    2.8714 H         1 UNK         0.0634 
@<TRIPOS>BOND
     1    1    2 1    
     2    1   72 1    
     3    1   73 1    
     4    1   74 1    
     5    2    3 2    
     6    2    4 am   BACKBONE|DICT|INTERRES
     7    4    5 1    
     8    4   75 1    
     9    5    6 1    
    10    5   35 1    
    11    5   76 1    
    12    6    7 1    
    13    6   77 1    
    14    6   78 1    
    15    7    8 1    
    16    8    9 1    
    17    8   79 1    
    18    8   80 1    
    19    9   10 ar   
    20    9   14 ar   
    21   10   11 ar   
    22   10   81 1    
    23   11   12 ar   
    24   11   71 1    
    25   12   13 ar   
    26   12   82 1    
    27   13   14 ar   
    28   13   15 1    
    29   14   83 1    
    30   15   16 1    
    31   15   84 1    
    32   15   85 1    
    33   16   17 1    
    34   17   18 1    
    35   17   86 1    
    36   17   87 1    
    37   18   19 1    
    38   18   37 1    
    39   18   88 1    
    40   19   20 am   BACKBONE|DICT|INTERRES
    41   19   89 1    
    42   20   21 2    
    43   20   22 1    
    44   22   23 1    
    45   22   24 1    
    46   22   90 1    
    47   23   91 1    
    48   23   92 1    
    49   23   93 1    
    50   24   25 am   BACKBONE|DICT|INTERRES
    51   24   94 1    
    52   25   26 2    
    53   25   27 1    
    54   27   28 1    
    55   27   29 1    
    56   27   95 1    
    57   28   96 1    
    58   28   97 1    
    59   28   98 1    
    60   29   30 am   BACKBONE|DICT|INTERRES
    61   29   99 1    
    62   30   31 2    
    63   30   32 1    
    64   32   33 1    
    65   32   34 1    
    66   32  100 1    
    67   33  101 1    
    68   33  102 1    
    69   33  103 1    
    70   34   35 am   BACKBONE|DICT|INTERRES
    71   34  104 1    
    72   35   36 2    
    73   37   38 2    
    74   37   39 am   BACKBONE|DICT|INTERRES
    75   39   40 1    
    76   39  105 1    
    77   40   41 1    
    78   40   42 1    
    79   40  106 1    
    80   41  107 1    
    81   41  108 1    
    82   41  109 1    
    83   42   43 2    
    84   42   44 am   BACKBONE|DICT|INTERRES
    85   44   45 1    
    86   44  110 1    
    87   45   46 1    
    88   45   47 1    
    89   45  111 1    
    90   46  112 1    
    91   46  113 1    
    92   46  114 1    
    93   47   48 2    
    94   47   49 am   BACKBONE|DICT|INTERRES
    95   49   50 1    
    96   49  115 1    
    97   50   51 1    
    98   50   52 1    
    99   50  116 1    
   100   51  117 1    
   101   51  118 1    
   102   51  119 1    
   103   52   53 2    
   104   52   54 am   BACKBONE|DICT|INTERRES
   105   54   55 1    
   106   54  120 1    
   107   55   56 1    
   108   55   57 1    
   109   55  121 1    
   110   56  122 1    
   111   56  123 1    
   112   56  124 1    
   113   57   58 2    
   114   57   59 am   BACKBONE|DICT|INTERRES
   115   59   60 1    
   116   59  125 1    
   117   60   61 1    
   118   60   62 1    
   119   60  126 1    
   120   61  127 1    
   121   61  128 1    
   122   61  129 1    
   123   62   63 2    
   124   62   64 am   BACKBONE|DICT|INTERRES
   125   64   65 1    
   126   64  130 1    
   127   65   66 1    
   128   65   69 1    
   129   65  131 1    
   130   66   67 am   BACKBONE|DICT|INTERRES
   131   66   68 2    
   132   67  132 1    
   133   67  133 1    
   134   69   70 1    
   135   69  134 1    
   136   69  135 1    
   137   70   71 1    
   138   71  136 1    
   139   71  137 1    
@<TRIPOS>SUBSTRUCTURE
     1 UNK         1 GROUP             0       ****    0 ROOT    
