@<TRIPOS>MOLECULE
3R136
137   139    1
SMALL
USER_CHARGES


@<TRIPOS>ATOM
      1 CA         31.9854   20.3358    1.9829 C.3       0 UNK        -0.1979 
      2 C          31.2300   21.5794    1.5381 C.2       0 UNK         0.4864 
      3 O          31.8327   22.4835    0.9595 O.2       0 UNK        -0.5359 
      4 N          29.9201   21.6302    1.8131 N.am      1 UNK        -0.4318 
      5 CA         29.0185   22.7335    1.4621 C.3       1 UNK         0.0824 
      6 C6         27.6204   22.5816    2.1255 C.3       12 UNK        -0.0944 
      7 S7         27.6566   22.1183    3.8945 S.3       12 UNK        -0.2672 
      8 C8         27.2290   23.6816    4.7394 C.3       12 UNK         0.0333 
      9 C9         28.3767   24.6717    4.9555 C.ar      12 UNK        -0.0807 
     10 C10        29.7016   24.4057    4.5811 C.ar      12 UNK        -0.0894 
     11 C11        30.7040   25.3568    4.7824 C.ar      12 UNK        -0.0804 
     12 C12        30.3921   26.5714    5.3931 C.ar      12 UNK        -0.0824 
     13 C13        29.0811   26.8528    5.7763 C.ar      12 UNK        -0.0762 
     14 C14        28.0814   25.8987    5.5610 C.ar      12 UNK        -0.0782 
     15 C15        28.7443   28.2031    6.3878 C.3       12 UNK         0.0230 
     16 S16        27.7337   29.2152    5.2630 S.3       12 UNK        -0.2608 
     17 C17        28.8295   29.4547    3.8154 C.3       12 UNK        -0.0989 
     18 CA         28.7286   28.3523    2.7253 C.3       5 UNK         0.0716 
     19 N          27.3515   27.9030    2.5116 N.am      5 UNK        -0.4135 
     20 C          26.9895   26.8288    1.8024 C.2       4 UNK         0.5031 
     21 O          27.7958   26.0704    1.2542 O.2       4 UNK        -0.5229 
     22 CA         25.4803   26.5403    1.6981 C.3       4 UNK         0.0329 
     23 CB         24.5992   27.8058    1.7297 C.3       4 UNK        -0.2001 
     24 N          25.2449   25.8163    0.4557 N.am      4 UNK        -0.4303 
     25 C          24.4512   24.7583    0.2741 C.2       3 UNK         0.5044 
     26 O          23.6755   24.3274    1.1275 O.2       3 UNK        -0.5152 
     27 CA         24.5799   24.0194   -1.0749 C.3       3 UNK         0.0319 
     28 CB         23.6886   24.6578   -2.1583 C.3       3 UNK        -0.2001 
     29 N          25.9765   23.8609   -1.5190 N.am      3 UNK        -0.4354 
     30 C          26.8415   24.8056   -1.9223 C.2       2 UNK         0.4964 
     31 O          26.5317   25.9797   -2.1294 O.2       2 UNK        -0.5047 
     32 CA         28.3175   24.3876   -1.9420 C.3       2 UNK         0.0288 
     33 CB         29.2450   25.4936   -2.4783 C.3       2 UNK        -0.2113 
     34 N          28.6895   24.0826   -0.5600 N.am      2 UNK        -0.4145 
     35 C          28.8556   22.8510   -0.0679 C.2       1 UNK         0.5006 
     36 O          28.8088   21.8287   -0.7586 O.2       1 UNK        -0.5103 
     37 C          29.3397   28.8292    1.3915 C.2       5 UNK         0.5055 
     38 O          28.7517   29.6991    0.7442 O.2       5 UNK        -0.5220 
     39 N          30.4730   28.2414    0.9860 N.am      6 UNK        -0.4450 
     40 CA         31.0553   28.4476   -0.3427 C.3       6 UNK         0.0367 
     41 CB         32.0109   27.2913   -0.6776 C.3       6 UNK        -0.1929 
     42 C          31.7591   29.8029   -0.5191 C.2       6 UNK         0.5070 
     43 O          31.6886   30.3690   -1.6105 O.2       6 UNK        -0.5237 
     44 N          32.4387   30.2930    0.5270 N.am      7 UNK        -0.4739 
     45 CA         33.1907   31.5512    0.4841 C.3       7 UNK         0.0276 
     46 CB         34.3761   31.4908    1.4638 C.3       7 UNK        -0.1927 
     47 C          32.2940   32.7624    0.7799 C.2       7 UNK         0.5013 
     48 O          32.3299   33.7370    0.0285 O.2       7 UNK        -0.5193 
     49 N          31.5114   32.6647    1.8627 N.am      8 UNK        -0.4253 
     50 CA         30.5703   33.6684    2.3735 C.3       8 UNK         0.0242 
     51 CB         31.2354   35.0425    2.6182 C.3       8 UNK        -0.2000 
     52 C          29.9430   33.1538    3.6739 C.2       8 UNK         0.4948 
     53 O          28.7201   33.0574    3.7640 O.2       8 UNK        -0.5275 
     54 N          30.8012   32.8106    4.6433 N.am      9 UNK        -0.4246 
     55 CA         30.4411   32.2448    5.9492 C.3       9 UNK         0.0261 
     56 CB         30.2660   33.3780    6.9786 C.3       9 UNK        -0.1959 
     57 C          31.4776   31.1932    6.3901 C.2       9 UNK         0.5033 
     58 O          31.6883   30.9884    7.5859 O.2       9 UNK        -0.5390 
     59 N          32.1140   30.5563    5.4032 N.am      10 UNK        -0.4215 
     60 CA         33.1700   29.5565    5.4861 C.3       10 UNK         0.0240 
     61 CB         34.4932   30.2167    5.9263 C.3       10 UNK        -0.1982 
     62 C          33.2854   28.9333    4.0855 C.2       10 UNK         0.4970 
     63 O          32.5312   29.3262    3.1869 O.2       10 UNK        -0.4916 
     64 N          34.2277   28.0013    3.9159 N.am      11 UNK        -0.4279 
     65 CA         34.5885   27.3936    2.6212 C.3       11 UNK         0.1003 
     66 C          36.0951   27.5690    2.2704 C.2       11 UNK         0.5709 
     67 N          36.8547   28.3900    2.9874 N.am      11 UNK        -0.7358 
     68 O          36.5855   26.9698    1.3166 O.2       11 UNK        -0.4999 
     69 C69        34.1262   25.9132    2.5163 C.3       12 UNK        -0.0954 
     70 S70        32.3153   25.7433    2.6143 S.3       12 UNK        -0.2268 
     71 C71        32.1182   25.0996    4.3001 C.3       12 UNK         0.0203 
     72 H72        32.4221   19.8339    1.1200 H         1 UNK         0.0888 
     73 H73        32.7917   20.6105    2.6625 H         1 UNK         0.0888 
     74 H74        31.3367   19.6260    2.4961 H         1 UNK         0.0888 
     75 H75        29.4796   20.8528    2.2835 H         1 UNK         0.3017 
     76 H76        29.4762   23.6580    1.8205 H         1 UNK         0.0873 
     77 H77        27.0457   23.5015    2.0048 H         1 UNK         0.0745 
     78 H78        27.0428   21.8055    1.6187 H         1 UNK         0.0745 
     79 H79        26.4217   24.1731    4.1946 H         1 UNK         0.0705 
     80 H80        26.8213   23.4229    5.7176 H         1 UNK         0.0705 
     81 H81        29.9691   23.4689    4.1164 H         1 UNK         0.1334 
     82 H82        31.1652   27.3104    5.5389 H         1 UNK         0.1417 
     83 H83        27.0640   26.1239    5.8516 H         1 UNK         0.1562 
     84 H84        29.6481   28.7517    6.6559 H         1 UNK         0.0748 
     85 H85        28.1932   28.0491    7.3165 H         1 UNK         0.0748 
     86 H86        29.8602   29.5454    4.1549 H         1 UNK         0.0940 
     87 H87        28.5626   30.4254    3.3947 H         1 UNK         0.0940 
     88 H88        29.2942   27.4824    3.0606 H         1 UNK         0.0703 
     89 H89        26.6373   28.4801    2.9291 H         1 UNK         0.3081 
     90 H90        25.2205   25.9040    2.5465 H         1 UNK         0.0719 
     91 H91        24.8970   28.5237    0.9641 H         1 UNK         0.0809 
     92 H92        23.5513   27.5576    1.5592 H         1 UNK         0.0809 
     93 H93        24.6489   28.3064    2.6971 H         1 UNK         0.0809 
     94 H94        25.8583   26.0686   -0.3148 H         1 UNK         0.2990 
     95 H95        24.2116   23.0055   -0.9094 H         1 UNK         0.0690 
     96 H96        23.7647   24.1190   -3.1027 H         1 UNK         0.0788 
     97 H97        23.9469   25.7005   -2.3442 H         1 UNK         0.0788 
     98 H98        22.6407   24.6370   -1.8562 H         1 UNK         0.0788 
     99 H99        26.3604   22.9388   -1.3594 H         1 UNK         0.2993 
    100 H100       28.4152   23.5125   -2.5882 H         1 UNK         0.0949 
    101 H101       30.2844   25.1654   -2.4886 H         1 UNK         0.0767 
    102 H102       28.9791   25.7651   -3.5007 H         1 UNK         0.0767 
    103 H103       29.1848   26.3979   -1.8720 H         1 UNK         0.0767 
    104 H104       28.6088   24.8587    0.0969 H         1 UNK         0.3013 
    105 H105       30.9211   27.5566    1.5813 H         1 UNK         0.3121 
    106 H106       30.2394   28.4161   -1.0681 H         1 UNK         0.0774 
    107 H107       32.3597   27.3636   -1.7085 H         1 UNK         0.0815 
    108 H108       32.8924   27.2927   -0.0384 H         1 UNK         0.0815 
    109 H109       31.5215   26.3233   -0.5684 H         1 UNK         0.0815 
    110 H110       32.4347   29.7823    1.4071 H         1 UNK         0.2987 
    111 H111       33.6050   31.6826   -0.5185 H         1 UNK         0.0949 
    112 H112       34.0523   31.4337    2.5025 H         1 UNK         0.0806 
    113 H113       35.0137   30.6297    1.2634 H         1 UNK         0.0806 
    114 H114       34.9984   32.3818    1.3707 H         1 UNK         0.0806 
    115 H115       31.5116   31.7798    2.3476 H         1 UNK         0.3010 
    116 H116       29.7718   33.7883    1.6386 H         1 UNK         0.0829 
    117 H117       31.4876   35.5411    1.6828 H         1 UNK         0.0813 
    118 H118       30.5632   35.7134    3.1553 H         1 UNK         0.0813 
    119 H119       32.1495   34.9564    3.2062 H         1 UNK         0.0813 
    120 H120       31.7877   32.9782    4.4949 H         1 UNK         0.3038 
    121 H121       29.4906   31.7145    5.8626 H         1 UNK         0.0769 
    122 H122       31.1962   33.9253    7.1346 H         1 UNK         0.0811 
    123 H123       29.9489   32.9860    7.9458 H         1 UNK         0.0811 
    124 H124       29.5068   34.0911    6.6569 H         1 UNK         0.0811 
    125 H125       31.8219   30.7115    4.4478 H         1 UNK         0.3204 
    126 H126       32.8813   28.7829    6.1995 H         1 UNK         0.0748 
    127 H127       34.3882   30.7159    6.8897 H         1 UNK         0.0771 
    128 H128       35.2892   29.4807    6.0413 H         1 UNK         0.0771 
    129 H129       34.8325   30.9606    5.2041 H         1 UNK         0.0771 
    130 H130       34.7983   27.7215    4.7005 H         1 UNK         0.2980 
    131 H131       34.0867   27.9446    1.8254 H         1 UNK         0.0545 
    132 H132       36.4706   28.9298    3.7445 H         1 UNK         0.3459 
    133 H133       37.8260   28.4946    2.7395 H         1 UNK         0.3459 
    134 H134       34.4260   25.4827    1.5593 H         1 UNK         0.0616 
    135 H135       34.6030   25.3029    3.2850 H         1 UNK         0.0616 
    136 H136       32.8309   25.5818    4.9707 H         1 UNK         0.0634 
    137 H137       32.3461   24.0327    4.3112 H         1 UNK         0.0634 
@<TRIPOS>BOND
     1    1    2 1    
     2    1   72 1    
     3    1   73 1    
     4    1   74 1    
     5    2    3 2    
     6    2    4 am   BACKBONE|DICT|INTERRES
     7    4    5 1    
     8    4   75 1    
     9    5    6 1    
    10    5   35 1    
    11    5   76 1    
    12    6    7 1    
    13    6   77 1    
    14    6   78 1    
    15    7    8 1    
    16    8    9 1    
    17    8   79 1    
    18    8   80 1    
    19    9   10 ar   
    20    9   14 ar   
    21   10   11 ar   
    22   10   81 1    
    23   11   12 ar   
    24   11   71 1    
    25   12   13 ar   
    26   12   82 1    
    27   13   14 ar   
    28   13   15 1    
    29   14   83 1    
    30   15   16 1    
    31   15   84 1    
    32   15   85 1    
    33   16   17 1    
    34   17   18 1    
    35   17   86 1    
    36   17   87 1    
    37   18   19 1    
    38   18   37 1    
    39   18   88 1    
    40   19   20 am   BACKBONE|DICT|INTERRES
    41   19   89 1    
    42   20   21 2    
    43   20   22 1    
    44   22   23 1    
    45   22   24 1    
    46   22   90 1    
    47   23   91 1    
    48   23   92 1    
    49   23   93 1    
    50   24   25 am   BACKBONE|DICT|INTERRES
    51   24   94 1    
    52   25   26 2    
    53   25   27 1    
    54   27   28 1    
    55   27   29 1    
    56   27   95 1    
    57   28   96 1    
    58   28   97 1    
    59   28   98 1    
    60   29   30 am   BACKBONE|DICT|INTERRES
    61   29   99 1    
    62   30   31 2    
    63   30   32 1    
    64   32   33 1    
    65   32   34 1    
    66   32  100 1    
    67   33  101 1    
    68   33  102 1    
    69   33  103 1    
    70   34   35 am   BACKBONE|DICT|INTERRES
    71   34  104 1    
    72   35   36 2    
    73   37   38 2    
    74   37   39 am   BACKBONE|DICT|INTERRES
    75   39   40 1    
    76   39  105 1    
    77   40   41 1    
    78   40   42 1    
    79   40  106 1    
    80   41  107 1    
    81   41  108 1    
    82   41  109 1    
    83   42   43 2    
    84   42   44 am   BACKBONE|DICT|INTERRES
    85   44   45 1    
    86   44  110 1    
    87   45   46 1    
    88   45   47 1    
    89   45  111 1    
    90   46  112 1    
    91   46  113 1    
    92   46  114 1    
    93   47   48 2    
    94   47   49 am   BACKBONE|DICT|INTERRES
    95   49   50 1    
    96   49  115 1    
    97   50   51 1    
    98   50   52 1    
    99   50  116 1    
   100   51  117 1    
   101   51  118 1    
   102   51  119 1    
   103   52   53 2    
   104   52   54 am   BACKBONE|DICT|INTERRES
   105   54   55 1    
   106   54  120 1    
   107   55   56 1    
   108   55   57 1    
   109   55  121 1    
   110   56  122 1    
   111   56  123 1    
   112   56  124 1    
   113   57   58 2    
   114   57   59 am   BACKBONE|DICT|INTERRES
   115   59   60 1    
   116   59  125 1    
   117   60   61 1    
   118   60   62 1    
   119   60  126 1    
   120   61  127 1    
   121   61  128 1    
   122   61  129 1    
   123   62   63 2    
   124   62   64 am   BACKBONE|DICT|INTERRES
   125   64   65 1    
   126   64  130 1    
   127   65   66 1    
   128   65   69 1    
   129   65  131 1    
   130   66   67 am   BACKBONE|DICT|INTERRES
   131   66   68 2    
   132   67  132 1    
   133   67  133 1    
   134   69   70 1    
   135   69  134 1    
   136   69  135 1    
   137   70   71 1    
   138   71  136 1    
   139   71  137 1    
@<TRIPOS>SUBSTRUCTURE
     1 UNK         1 GROUP             0       ****    0 ROOT    
