@<TRIPOS>MOLECULE
3R136
137   139    1
SMALL
USER_CHARGES


@<TRIPOS>ATOM
      1 CA         32.1182   22.7783   -3.3655 C.3       0 UNK        -0.1979 
      2 C          31.0977   23.8476   -3.0064 C.2       0 UNK         0.4864 
      3 O          30.5738   24.5207   -3.8963 O.2       0 UNK        -0.5359 
      4 N          30.7979   24.0052   -1.7105 N.am      1 UNK        -0.4318 
      5 CA         29.8598   24.9939   -1.1624 C.3       1 UNK         0.0824 
      6 C6         30.1574   25.3107    0.3256 C.3       12 UNK        -0.0944 
      7 S7         31.8665   25.8832    0.6190 S.3       12 UNK        -0.2672 
      8 C8         32.5233   24.5706    1.6979 C.3       12 UNK         0.0333 
      9 C9         31.8493   24.5731    3.0626 C.ar      12 UNK        -0.0807 
     10 C10        32.2162   25.5189    4.0221 C.ar      12 UNK        -0.0894 
     11 C11        31.6035   25.5351    5.2771 C.ar      12 UNK        -0.0804 
     12 C12        30.5997   24.6063    5.5669 C.ar      12 UNK        -0.0824 
     13 C13        30.2084   23.6677    4.6053 C.ar      12 UNK        -0.0762 
     14 C14        30.8536   23.6402    3.3660 C.ar      12 UNK        -0.0782 
     15 C15        29.0628   22.7047    4.8814 C.3       12 UNK         0.0230 
     16 S16        27.5487   23.2004    3.9906 S.3       12 UNK        -0.2608 
     17 C17        27.1973   24.8175    4.7558 C.3       12 UNK        -0.0989 
     18 CA         27.6459   26.0000    3.8601 C.3       5 UNK         0.0716 
     19 N          26.7972   26.1420    2.6687 N.am      5 UNK        -0.4135 
     20 C          26.8927   27.1198    1.7564 C.2       4 UNK         0.5031 
     21 O          27.7690   27.9908    1.7704 O.2       4 UNK        -0.5229 
     22 CA         25.8087   27.1618    0.6683 C.3       4 UNK         0.0329 
     23 CB         24.4257   27.4582    1.2849 C.3       4 UNK        -0.2001 
     24 N          26.1696   28.2176   -0.2783 N.am      4 UNK        -0.4303 
     25 C          25.8512   28.3470   -1.5714 C.2       3 UNK         0.5044 
     26 O          26.2971   29.2720   -2.2489 O.2       3 UNK        -0.5152 
     27 CA         24.9779   27.2809   -2.2531 C.3       3 UNK         0.0319 
     28 CB         24.2145   27.8258   -3.4764 C.3       3 UNK        -0.2001 
     29 N          25.8600   26.1975   -2.6678 N.am      3 UNK        -0.4354 
     30 C          25.5339   24.9010   -2.7027 C.2       2 UNK         0.4964 
     31 O          24.4069   24.4673   -2.4608 O.2       2 UNK        -0.5047 
     32 CA         26.6627   23.9146   -3.0521 C.3       2 UNK         0.0288 
     33 CB         26.6753   23.6203   -4.5609 C.3       2 UNK        -0.2113 
     34 N          27.9948   24.3707   -2.6386 N.am      2 UNK        -0.4145 
     35 C          28.3952   24.5432   -1.3711 C.2       1 UNK         0.5006 
     36 O          27.6650   24.3386   -0.3995 O.2       1 UNK        -0.5103 
     37 C          27.6758   27.3018    4.6863 C.2       5 UNK         0.5055 
     38 O          26.6130   27.8313    5.0187 O.2       5 UNK        -0.5220 
     39 N          28.8877   27.8060    4.9573 N.am      6 UNK        -0.4450 
     40 CA         29.2280   29.0681    5.6332 C.3       6 UNK         0.0367 
     41 CB         28.6694   29.1188    7.0680 C.3       6 UNK        -0.1929 
     42 C          28.8682   30.3427    4.8449 C.2       6 UNK         0.5070 
     43 O          29.6246   31.3109    4.9108 O.2       6 UNK        -0.5237 
     44 N          27.7681   30.3300    4.0805 N.am      7 UNK        -0.4739 
     45 CA         27.3513   31.4108    3.1786 C.3       7 UNK         0.0276 
     46 CB         25.9575   31.0985    2.6131 C.3       7 UNK        -0.1927 
     47 C          28.3559   31.6582    2.0386 C.2       7 UNK         0.5013 
     48 O          28.5661   32.8078    1.6521 O.2       7 UNK        -0.5193 
     49 N          28.9920   30.5801    1.5611 N.am      8 UNK        -0.4253 
     50 CA         30.0964   30.5974    0.5990 C.3       8 UNK         0.0242 
     51 CB         30.1179   29.2489   -0.1416 C.3       8 UNK        -0.2000 
     52 C          31.4699   30.9029    1.2380 C.2       8 UNK         0.4948 
     53 O          32.4774   30.8246    0.5332 O.2       8 UNK        -0.5275 
     54 N          31.5008   31.2402    2.5378 N.am      9 UNK        -0.4246 
     55 CA         32.6806   31.4931    3.3691 C.3       9 UNK         0.0261 
     56 CB         33.4860   32.7132    2.8624 C.3       9 UNK        -0.1959 
     57 C          33.5002   30.2059    3.5696 C.2       9 UNK         0.5033 
     58 O          32.9379   29.2154    4.0390 O.2       9 UNK        -0.5390 
     59 N          34.8055   30.2485    3.2667 N.am      10 UNK        -0.4215 
     60 CA         35.8184   29.1859    3.3764 C.3       10 UNK         0.0240 
     61 CB         35.4671   27.9690    2.4984 C.3       10 UNK        -0.1982 
     62 C          36.1719   28.7646    4.8167 C.2       10 UNK         0.4970 
     63 O          37.3570   28.5949    5.1061 O.2       10 UNK        -0.4916 
     64 N          35.1720   28.6327    5.6969 N.am      11 UNK        -0.4279 
     65 CA         35.3518   28.3674    7.1368 C.3       11 UNK         0.1003 
     66 C          35.8576   29.5917    7.9566 C.2       11 UNK         0.5709 
     67 N          35.8779   30.8023    7.4104 N.am      11 UNK        -0.7358 
     68 O          36.2493   29.4371    9.1111 O.2       11 UNK        -0.4999 
     69 C69        34.0834   27.7550    7.7893 C.3       12 UNK        -0.0954 
     70 S70        33.6193   26.1534    7.0526 S.3       12 UNK        -0.2268 
     71 C71        32.0221   26.5766    6.2999 C.3       12 UNK         0.0203 
     72 H72        31.6669   22.0344   -4.0215 H         1 UNK         0.0888 
     73 H73        32.9624   23.2271   -3.8882 H         1 UNK         0.0888 
     74 H74        32.5000   22.2659   -2.4826 H         1 UNK         0.0888 
     75 H75        31.2457   23.4124   -1.0274 H         1 UNK         0.3017 
     76 H76        29.9831   25.9256   -1.7194 H         1 UNK         0.0873 
     77 H77        29.4891   26.0938    0.6853 H         1 UNK         0.0745 
     78 H78        29.9472   24.4370    0.9410 H         1 UNK         0.0745 
     79 H79        32.4086   23.6025    1.2084 H         1 UNK         0.0705 
     80 H80        33.5962   24.7240    1.8237 H         1 UNK         0.0705 
     81 H81        32.9797   26.2483    3.7948 H         1 UNK         0.1334 
     82 H82        30.1122   24.6262    6.5321 H         1 UNK         0.1417 
     83 H83        30.5533   22.9093    2.6275 H         1 UNK         0.1562 
     84 H84        28.8539   22.6418    5.9505 H         1 UNK         0.0748 
     85 H85        29.3477   21.6998    4.5662 H         1 UNK         0.0748 
     86 H86        27.6845   24.8524    5.7322 H         1 UNK         0.0940 
     87 H87        26.1273   24.8802    4.9640 H         1 UNK         0.0940 
     88 H88        28.6579   25.8061    3.4987 H         1 UNK         0.0703 
     89 H89        26.0576   25.4621    2.5765 H         1 UNK         0.3081 
     90 H90        25.7972   26.1940    0.1657 H         1 UNK         0.0719 
     91 H91        24.4440   28.3560    1.9034 H         1 UNK         0.0809 
     92 H92        23.6551   27.6015    0.5289 H         1 UNK         0.0809 
     93 H93        24.0950   26.6368    1.9214 H         1 UNK         0.0809 
     94 H94        26.8325   28.8712    0.1188 H         1 UNK         0.2990 
     95 H95        24.2409   26.9120   -1.5400 H         1 UNK         0.0690 
     96 H96        23.5862   28.6726   -3.1975 H         1 UNK         0.0788 
     97 H97        23.5621   27.0651   -3.9053 H         1 UNK         0.0788 
     98 H98        24.8921   28.1639   -4.2615 H         1 UNK         0.0788 
     99 H99        26.8129   26.4628   -2.8753 H         1 UNK         0.2993 
    100 H100       26.4528   22.9830   -2.5220 H         1 UNK         0.0949 
    101 H101       27.4123   22.8563   -4.8098 H         1 UNK         0.0767 
    102 H102       25.7039   23.2533   -4.8956 H         1 UNK         0.0767 
    103 H103       26.9064   24.5125   -5.1443 H         1 UNK         0.0767 
    104 H104       28.6894   24.5120   -3.3677 H         1 UNK         0.3013 
    105 H105       29.6848   27.3044    4.5885 H         1 UNK         0.3121 
    106 H106       30.3158   29.0697    5.7116 H         1 UNK         0.0774 
    107 H107       29.0326   30.0034    7.5927 H         1 UNK         0.0815 
    108 H108       27.5802   29.1613    7.0830 H         1 UNK         0.0815 
    109 H109       28.9806   28.2487    7.6459 H         1 UNK         0.0815 
    110 H110       27.1882   29.4973    4.1135 H         1 UNK         0.2987 
    111 H111       27.2874   32.3286    3.7672 H         1 UNK         0.0949 
    112 H112       25.9657   30.1972    2.0013 H         1 UNK         0.0806 
    113 H113       25.2261   30.9588    3.4092 H         1 UNK         0.0806 
    114 H114       25.6006   31.9151    1.9839 H         1 UNK         0.0806 
    115 H115       28.7059   29.6644    1.9006 H         1 UNK         0.3010 
    116 H116       29.9072   31.3827   -0.1357 H         1 UNK         0.0829 
    117 H117       29.1721   29.0562   -0.6479 H         1 UNK         0.0813 
    118 H118       30.9010   29.2222   -0.9003 H         1 UNK         0.0813 
    119 H119       30.3030   28.4255    0.5478 H         1 UNK         0.0813 
    120 H120       30.6250   31.2520    3.0475 H         1 UNK         0.3038 
    121 H121       32.2968   31.7521    4.3569 H         1 UNK         0.0769 
    122 H122       33.9436   32.5390    1.8881 H         1 UNK         0.0811 
    123 H123       34.2794   32.9813    3.5612 H         1 UNK         0.0811 
    124 H124       32.8429   33.5884    2.7677 H         1 UNK         0.0811 
    125 H125       35.1545   31.1269    2.9086 H         1 UNK         0.3204 
    126 H126       36.7292   29.6206    2.9611 H         1 UNK         0.0748 
    127 H127       36.2557   27.2164    2.5387 H         1 UNK         0.0771 
    128 H128       34.5440   27.4880    2.8153 H         1 UNK         0.0771 
    129 H129       35.3467   28.2579    1.4542 H         1 UNK         0.0771 
    130 H130       34.2231   28.7668    5.3594 H         1 UNK         0.2980 
    131 H131       36.1430   27.6204    7.2260 H         1 UNK         0.0545 
    132 H132       36.2133   31.5820    7.9539 H         1 UNK         0.3459 
    133 H133       35.5648   30.9426    6.4645 H         1 UNK         0.3459 
    134 H134       34.2489   27.5748    8.8531 H         1 UNK         0.0616 
    135 H135       33.2475   28.4543    7.7295 H         1 UNK         0.0616 
    136 H136       32.1015   27.5448    5.8084 H         1 UNK         0.0634 
    137 H137       31.2693   26.6842    7.0824 H         1 UNK         0.0634 
@<TRIPOS>BOND
     1    1    2 1    
     2    1   72 1    
     3    1   73 1    
     4    1   74 1    
     5    2    3 2    
     6    2    4 am   BACKBONE|DICT|INTERRES
     7    4    5 1    
     8    4   75 1    
     9    5    6 1    
    10    5   35 1    
    11    5   76 1    
    12    6    7 1    
    13    6   77 1    
    14    6   78 1    
    15    7    8 1    
    16    8    9 1    
    17    8   79 1    
    18    8   80 1    
    19    9   10 ar   
    20    9   14 ar   
    21   10   11 ar   
    22   10   81 1    
    23   11   12 ar   
    24   11   71 1    
    25   12   13 ar   
    26   12   82 1    
    27   13   14 ar   
    28   13   15 1    
    29   14   83 1    
    30   15   16 1    
    31   15   84 1    
    32   15   85 1    
    33   16   17 1    
    34   17   18 1    
    35   17   86 1    
    36   17   87 1    
    37   18   19 1    
    38   18   37 1    
    39   18   88 1    
    40   19   20 am   BACKBONE|DICT|INTERRES
    41   19   89 1    
    42   20   21 2    
    43   20   22 1    
    44   22   23 1    
    45   22   24 1    
    46   22   90 1    
    47   23   91 1    
    48   23   92 1    
    49   23   93 1    
    50   24   25 am   BACKBONE|DICT|INTERRES
    51   24   94 1    
    52   25   26 2    
    53   25   27 1    
    54   27   28 1    
    55   27   29 1    
    56   27   95 1    
    57   28   96 1    
    58   28   97 1    
    59   28   98 1    
    60   29   30 am   BACKBONE|DICT|INTERRES
    61   29   99 1    
    62   30   31 2    
    63   30   32 1    
    64   32   33 1    
    65   32   34 1    
    66   32  100 1    
    67   33  101 1    
    68   33  102 1    
    69   33  103 1    
    70   34   35 am   BACKBONE|DICT|INTERRES
    71   34  104 1    
    72   35   36 2    
    73   37   38 2    
    74   37   39 am   BACKBONE|DICT|INTERRES
    75   39   40 1    
    76   39  105 1    
    77   40   41 1    
    78   40   42 1    
    79   40  106 1    
    80   41  107 1    
    81   41  108 1    
    82   41  109 1    
    83   42   43 2    
    84   42   44 am   BACKBONE|DICT|INTERRES
    85   44   45 1    
    86   44  110 1    
    87   45   46 1    
    88   45   47 1    
    89   45  111 1    
    90   46  112 1    
    91   46  113 1    
    92   46  114 1    
    93   47   48 2    
    94   47   49 am   BACKBONE|DICT|INTERRES
    95   49   50 1    
    96   49  115 1    
    97   50   51 1    
    98   50   52 1    
    99   50  116 1    
   100   51  117 1    
   101   51  118 1    
   102   51  119 1    
   103   52   53 2    
   104   52   54 am   BACKBONE|DICT|INTERRES
   105   54   55 1    
   106   54  120 1    
   107   55   56 1    
   108   55   57 1    
   109   55  121 1    
   110   56  122 1    
   111   56  123 1    
   112   56  124 1    
   113   57   58 2    
   114   57   59 am   BACKBONE|DICT|INTERRES
   115   59   60 1    
   116   59  125 1    
   117   60   61 1    
   118   60   62 1    
   119   60  126 1    
   120   61  127 1    
   121   61  128 1    
   122   61  129 1    
   123   62   63 2    
   124   62   64 am   BACKBONE|DICT|INTERRES
   125   64   65 1    
   126   64  130 1    
   127   65   66 1    
   128   65   69 1    
   129   65  131 1    
   130   66   67 am   BACKBONE|DICT|INTERRES
   131   66   68 2    
   132   67  132 1    
   133   67  133 1    
   134   69   70 1    
   135   69  134 1    
   136   69  135 1    
   137   70   71 1    
   138   71  136 1    
   139   71  137 1    
@<TRIPOS>SUBSTRUCTURE
     1 UNK         1 GROUP             0       ****    0 ROOT    
