@<TRIPOS>MOLECULE
3R136
137   139    1
SMALL
USER_CHARGES


@<TRIPOS>ATOM
      1 CA         33.2146   24.9266   -2.4646 C.3       0 UNK        -0.1979 
      2 C          32.1948   25.9849   -2.0708 C.2       0 UNK         0.4864 
      3 O          32.4814   27.1770   -2.1849 O.2       0 UNK        -0.5359 
      4 N          31.0145   25.5523   -1.6134 N.am      1 UNK        -0.4318 
      5 CA         29.8925   26.4048   -1.2141 C.3       1 UNK         0.0824 
      6 C6         29.5128   26.1919    0.2720 C.3       12 UNK        -0.0944 
      7 S7         30.7556   26.8976    1.3974 S.3       12 UNK        -0.2672 
      8 C8         31.7843   25.4486    1.7805 C.3       12 UNK         0.0333 
      9 C9         31.5616   25.0012    3.2135 C.ar      12 UNK        -0.0807 
     10 C10        32.2617   25.6262    4.2479 C.ar      12 UNK        -0.0894 
     11 C11        32.0654   25.2366    5.5742 C.ar      12 UNK        -0.0804 
     12 C12        31.1510   24.2201    5.8641 C.ar      12 UNK        -0.0824 
     13 C13        30.4399   23.5886    4.8369 C.ar      12 UNK        -0.0762 
     14 C14        30.6591   23.9757    3.5102 C.ar      12 UNK        -0.0782 
     15 C15        29.4351   22.4905    5.1718 C.3       12 UNK         0.0230 
     16 S16        27.7467   22.8364    4.5657 S.3       12 UNK        -0.2608 
     17 C17        27.4489   24.5365    5.1586 C.3       12 UNK        -0.0989 
     18 CA         27.2801   25.5102    3.9639 C.3       5 UNK         0.0716 
     19 N          25.9822   25.3124    3.3106 N.am      5 UNK        -0.4135 
     20 C          25.6137   25.8443    2.1409 C.2       4 UNK         0.5031 
     21 O          26.3266   26.5798    1.4571 O.2       4 UNK        -0.5229 
     22 CA         24.2016   25.5007    1.6453 C.3       4 UNK         0.0329 
     23 CB         23.2579   26.7012    1.8194 C.3       4 UNK        -0.2001 
     24 N          24.2531   25.1294    0.2334 N.am      4 UNK        -0.4303 
     25 C          24.6971   23.9572   -0.2327 C.2       3 UNK         0.5044 
     26 O          24.9825   22.9998    0.4877 O.2       3 UNK        -0.5152 
     27 CA         24.8721   23.8284   -1.7563 C.3       3 UNK         0.0319 
     28 CB         23.5138   23.7061   -2.4755 C.3       3 UNK        -0.2001 
     29 N          25.7159   24.8760   -2.3499 N.am      3 UNK        -0.4354 
     30 C          25.4792   26.1898   -2.4715 C.2       2 UNK         0.4964 
     31 O          24.4503   26.7431   -2.0777 O.2       2 UNK        -0.5047 
     32 CA         26.6002   27.0214   -3.1258 C.3       2 UNK         0.0288 
     33 CB         26.1534   28.4599   -3.4499 C.3       2 UNK        -0.2113 
     34 N          27.8010   27.0836   -2.2886 N.am      2 UNK        -0.4145 
     35 C          28.6953   26.0984   -2.1302 C.2       1 UNK         0.5006 
     36 O          28.5896   24.9881   -2.6620 O.2       1 UNK        -0.5103 
     37 C          27.4950   26.9689    4.4143 C.2       5 UNK         0.5055 
     38 O          26.5262   27.6903    4.6663 O.2       5 UNK        -0.5220 
     39 N          28.7765   27.3402    4.5536 N.am      6 UNK        -0.4450 
     40 CA         29.2783   28.6369    5.0240 C.3       6 UNK         0.0367 
     41 CB         28.8182   28.9209    6.4712 C.3       6 UNK        -0.1929 
     42 C          28.9723   29.8045    4.0678 C.2       6 UNK         0.5070 
     43 O          28.7842   30.9365    4.5175 O.2       6 UNK        -0.5237 
     44 N          28.9599   29.5320    2.7567 N.am      7 UNK        -0.4739 
     45 CA         28.6784   30.5012    1.6922 C.3       7 UNK         0.0276 
     46 CB         28.1316   29.7450    0.4670 C.3       7 UNK        -0.1927 
     47 C          29.8964   31.3860    1.3455 C.2       7 UNK         0.5013 
     48 O          30.2043   31.5588    0.1649 O.2       7 UNK        -0.5193 
     49 N          30.5571   31.9322    2.3782 N.am      8 UNK        -0.4253 
     50 CA         31.7367   32.8075    2.3343 C.3       8 UNK         0.0242 
     51 CB         31.3575   34.1950    1.7737 C.3       8 UNK        -0.2000 
     52 C          32.9286   32.1643    1.5967 C.2       8 UNK         0.4948 
     53 O          33.4640   32.7491    0.6518 O.2       8 UNK        -0.5275 
     54 N          33.3046   30.9609    2.0421 N.am      9 UNK        -0.4246 
     55 CA         34.4011   30.1616    1.4955 C.3       9 UNK         0.0261 
     56 CB         33.8176   28.9268    0.7793 C.3       9 UNK        -0.1959 
     57 C          35.3656   29.8329    2.6439 C.2       9 UNK         0.5033 
     58 O          35.9331   30.7580    3.2276 O.2       9 UNK        -0.5390 
     59 N          35.5164   28.5418    2.9788 N.am      10 UNK        -0.4215 
     60 CA         36.2865   28.0500    4.1307 C.3       10 UNK         0.0240 
     61 CB         36.3673   26.5155    4.0702 C.3       10 UNK        -0.1982 
     62 C          35.7222   28.5081    5.4910 C.2       10 UNK         0.4970 
     63 O          36.4702   28.5731    6.4669 O.2       10 UNK        -0.4916 
     64 N          34.4283   28.8379    5.5159 N.am      11 UNK        -0.4279 
     65 CA         33.7212   29.5139    6.6012 C.3       11 UNK         0.1003 
     66 C          32.5924   30.4061    6.0108 C.2       11 UNK         0.5709 
     67 N          31.9071   31.1781    6.8415 N.am      11 UNK        -0.7358 
     68 O          32.3367   30.4097    4.8039 O.2       11 UNK        -0.4999 
     69 C69        33.2731   28.5343    7.7253 C.3       12 UNK        -0.0954 
     70 S70        31.9277   27.3969    7.2518 S.3       12 UNK        -0.2268 
     71 C71        32.8338   25.9292    6.6876 C.3       12 UNK         0.0203 
     72 H72        34.1229   25.0446   -1.8743 H         1 UNK         0.0888 
     73 H73        32.8369   23.9165   -2.3064 H         1 UNK         0.0888 
     74 H74        33.4757   25.0304   -3.5174 H         1 UNK         0.0888 
     75 H75        30.8058   24.5634   -1.6278 H         1 UNK         0.3017 
     76 H76        30.1496   27.4560   -1.3627 H         1 UNK         0.0873 
     77 H77        28.5818   26.7078    0.4959 H         1 UNK         0.0745 
     78 H78        29.3382   25.1390    0.5012 H         1 UNK         0.0745 
     79 H79        31.5830   24.6321    1.0860 H         1 UNK         0.0705 
     80 H80        32.8323   25.7135    1.6341 H         1 UNK         0.0705 
     81 H81        32.9534   26.4249    4.0208 H         1 UNK         0.1334 
     82 H82        30.9899   23.9274    6.8929 H         1 UNK         0.1417 
     83 H83        30.1121   23.4901    2.7132 H         1 UNK         0.1562 
     84 H84        29.3859   22.3287    6.2498 H         1 UNK         0.0748 
     85 H85        29.7794   21.5508    4.7381 H         1 UNK         0.0748 
     86 H86        28.2685   24.8372    5.8134 H         1 UNK         0.0940 
     87 H87        26.5602   24.5414    5.7926 H         1 UNK         0.0940 
     88 H88        28.0497   25.2957    3.2185 H         1 UNK         0.0703 
     89 H89        25.3252   24.7297    3.8071 H         1 UNK         0.3081 
     90 H90        23.8059   24.6592    2.2183 H         1 UNK         0.0719 
     91 H91        23.6023   27.5688    1.2545 H         1 UNK         0.0809 
     92 H92        22.2475   26.4636    1.4863 H         1 UNK         0.0809 
     93 H93        23.1944   26.9986    2.8670 H         1 UNK         0.0809 
     94 H94        24.1237   25.8752   -0.4457 H         1 UNK         0.2990 
     95 H95        25.4105   22.8949   -1.9282 H         1 UNK         0.0690 
     96 H96        23.6461   23.5399   -3.5446 H         1 UNK         0.0788 
     97 H97        22.8977   24.5967   -2.3491 H         1 UNK         0.0788 
     98 H98        22.9437   22.8624   -2.0847 H         1 UNK         0.0788 
     99 H99        26.6414   24.5674   -2.6350 H         1 UNK         0.2993 
    100 H100       26.8561   26.5338   -4.0694 H         1 UNK         0.0949 
    101 H101       26.9328   29.0078   -3.9800 H         1 UNK         0.0767 
    102 H102       25.2691   28.4595   -4.0888 H         1 UNK         0.0767 
    103 H103       25.9038   29.0199   -2.5475 H         1 UNK         0.0767 
    104 H104       27.9387   27.9476   -1.7856 H         1 UNK         0.3013 
    105 H105       29.4944   26.6661    4.3200 H         1 UNK         0.3121 
    106 H106       30.3636   28.5417    5.0334 H         1 UNK         0.0774 
    107 H107       27.7563   29.1631    6.5199 H         1 UNK         0.0815 
    108 H108       29.3618   29.7669    6.8923 H         1 UNK         0.0815 
    109 H109       28.9960   28.0662    7.1231 H         1 UNK         0.0815 
    110 H110       29.1787   28.5902    2.4604 H         1 UNK         0.2987 
    111 H111       27.8909   31.1743    2.0385 H         1 UNK         0.0949 
    112 H112       28.8983   29.1140    0.0192 H         1 UNK         0.0806 
    113 H113       27.2823   29.1144    0.7318 H         1 UNK         0.0806 
    114 H114       27.7909   30.4403   -0.3014 H         1 UNK         0.0806 
    115 H115       30.2073   31.7074    3.3048 H         1 UNK         0.3010 
    116 H116       32.0557   32.9464    3.3687 H         1 UNK         0.0829 
    117 H117       31.0420   34.1384    0.7313 H         1 UNK         0.0813 
    118 H118       30.5463   34.6455    2.3455 H         1 UNK         0.0813 
    119 H119       32.2054   34.8795    1.8201 H         1 UNK         0.0813 
    120 H120       32.8555   30.6065    2.8820 H         1 UNK         0.3038 
    121 H121       34.9730   30.7388    0.7661 H         1 UNK         0.0769 
    122 H122       34.6003   28.3248    0.3157 H         1 UNK         0.0811 
    123 H123       33.2572   28.2892    1.4612 H         1 UNK         0.0811 
    124 H124       33.1353   29.2239   -0.0181 H         1 UNK         0.0811 
    125 H125       35.0397   27.8476    2.4221 H         1 UNK         0.3204 
    126 H126       37.2989   28.4511    4.0488 H         1 UNK         0.0748 
    127 H127       36.9590   26.1238    4.8989 H         1 UNK         0.0771 
    128 H128       35.3821   26.0521    4.1284 H         1 UNK         0.0771 
    129 H129       36.8436   26.1787    3.1491 H         1 UNK         0.0771 
    130 H130       33.8978   28.7981    4.6579 H         1 UNK         0.2980 
    131 H131       34.4284   30.2186    7.0426 H         1 UNK         0.0545 
    132 H132       31.1715   31.7579    6.4708 H         1 UNK         0.3459 
    133 H133       32.1040   31.1879    7.8295 H         1 UNK         0.3459 
    134 H134       34.1248   27.9540    8.0832 H         1 UNK         0.0616 
    135 H135       32.9292   29.1029    8.5902 H         1 UNK         0.0616 
    136 H136       32.9875   25.2538    7.5304 H         1 UNK         0.0634 
    137 H137       33.8258   26.2081    6.3316 H         1 UNK         0.0634 
@<TRIPOS>BOND
     1    1    2 1    
     2    1   72 1    
     3    1   73 1    
     4    1   74 1    
     5    2    3 2    
     6    2    4 am   BACKBONE|DICT|INTERRES
     7    4    5 1    
     8    4   75 1    
     9    5    6 1    
    10    5   35 1    
    11    5   76 1    
    12    6    7 1    
    13    6   77 1    
    14    6   78 1    
    15    7    8 1    
    16    8    9 1    
    17    8   79 1    
    18    8   80 1    
    19    9   10 ar   
    20    9   14 ar   
    21   10   11 ar   
    22   10   81 1    
    23   11   12 ar   
    24   11   71 1    
    25   12   13 ar   
    26   12   82 1    
    27   13   14 ar   
    28   13   15 1    
    29   14   83 1    
    30   15   16 1    
    31   15   84 1    
    32   15   85 1    
    33   16   17 1    
    34   17   18 1    
    35   17   86 1    
    36   17   87 1    
    37   18   19 1    
    38   18   37 1    
    39   18   88 1    
    40   19   20 am   BACKBONE|DICT|INTERRES
    41   19   89 1    
    42   20   21 2    
    43   20   22 1    
    44   22   23 1    
    45   22   24 1    
    46   22   90 1    
    47   23   91 1    
    48   23   92 1    
    49   23   93 1    
    50   24   25 am   BACKBONE|DICT|INTERRES
    51   24   94 1    
    52   25   26 2    
    53   25   27 1    
    54   27   28 1    
    55   27   29 1    
    56   27   95 1    
    57   28   96 1    
    58   28   97 1    
    59   28   98 1    
    60   29   30 am   BACKBONE|DICT|INTERRES
    61   29   99 1    
    62   30   31 2    
    63   30   32 1    
    64   32   33 1    
    65   32   34 1    
    66   32  100 1    
    67   33  101 1    
    68   33  102 1    
    69   33  103 1    
    70   34   35 am   BACKBONE|DICT|INTERRES
    71   34  104 1    
    72   35   36 2    
    73   37   38 2    
    74   37   39 am   BACKBONE|DICT|INTERRES
    75   39   40 1    
    76   39  105 1    
    77   40   41 1    
    78   40   42 1    
    79   40  106 1    
    80   41  107 1    
    81   41  108 1    
    82   41  109 1    
    83   42   43 2    
    84   42   44 am   BACKBONE|DICT|INTERRES
    85   44   45 1    
    86   44  110 1    
    87   45   46 1    
    88   45   47 1    
    89   45  111 1    
    90   46  112 1    
    91   46  113 1    
    92   46  114 1    
    93   47   48 2    
    94   47   49 am   BACKBONE|DICT|INTERRES
    95   49   50 1    
    96   49  115 1    
    97   50   51 1    
    98   50   52 1    
    99   50  116 1    
   100   51  117 1    
   101   51  118 1    
   102   51  119 1    
   103   52   53 2    
   104   52   54 am   BACKBONE|DICT|INTERRES
   105   54   55 1    
   106   54  120 1    
   107   55   56 1    
   108   55   57 1    
   109   55  121 1    
   110   56  122 1    
   111   56  123 1    
   112   56  124 1    
   113   57   58 2    
   114   57   59 am   BACKBONE|DICT|INTERRES
   115   59   60 1    
   116   59  125 1    
   117   60   61 1    
   118   60   62 1    
   119   60  126 1    
   120   61  127 1    
   121   61  128 1    
   122   61  129 1    
   123   62   63 2    
   124   62   64 am   BACKBONE|DICT|INTERRES
   125   64   65 1    
   126   64  130 1    
   127   65   66 1    
   128   65   69 1    
   129   65  131 1    
   130   66   67 am   BACKBONE|DICT|INTERRES
   131   66   68 2    
   132   67  132 1    
   133   67  133 1    
   134   69   70 1    
   135   69  134 1    
   136   69  135 1    
   137   70   71 1    
   138   71  136 1    
   139   71  137 1    
@<TRIPOS>SUBSTRUCTURE
     1 UNK         1 GROUP             0       ****    0 ROOT    
