@<TRIPOS>MOLECULE
3R136
137   139    1
SMALL
USER_CHARGES


@<TRIPOS>ATOM
      1 CA         30.9889   27.3605    2.4826 C.3       0 UNK        -0.1979 
      2 C          30.3507   26.2414    3.2911 C.2       0 UNK         0.4864 
      3 O          30.5790   26.1471    4.4970 O.2       0 UNK        -0.5359 
      4 N          29.5392   25.4102    2.6311 N.am      1 UNK        -0.4318 
      5 CA         28.8177   24.2812    3.2147 C.3       1 UNK         0.0824 
      6 C6         29.3325   22.9179    2.6866 C.3       12 UNK        -0.0944 
      7 S7         30.9813   22.4972    3.3401 S.3       12 UNK        -0.2672 
      8 C8         31.9043   22.1117    1.8192 C.3       12 UNK         0.0333 
      9 C9         32.4090   23.3627    1.1137 C.ar      12 UNK        -0.0807 
     10 C10        33.4937   24.0649    1.6430 C.ar      12 UNK        -0.0894 
     11 C11        34.0101   25.1906    0.9882 C.ar      12 UNK        -0.0804 
     12 C12        33.4374   25.5865   -0.2250 C.ar      12 UNK        -0.0824 
     13 C13        32.3495   24.8940   -0.7724 C.ar      12 UNK        -0.0762 
     14 C14        31.8356   23.7875   -0.0876 C.ar      12 UNK        -0.0782 
     15 C15        31.7472   25.2644   -2.1289 C.3       12 UNK         0.0230 
     16 S16        31.9062   27.0165   -2.6247 S.3       12 UNK        -0.2608 
     17 C17        30.9328   27.8896   -1.3531 C.3       12 UNK        -0.0989 
     18 CA         29.4838   28.2031   -1.8243 C.3       5 UNK         0.0716 
     19 N          28.6593   27.0026   -2.0255 N.am      5 UNK        -0.4135 
     20 C          28.2975   26.1270   -1.0789 C.2       4 UNK         0.5031 
     21 O          28.6732   26.1768    0.0933 O.2       4 UNK        -0.5229 
     22 CA         27.3057   25.0379   -1.5062 C.3       4 UNK         0.0329 
     23 CB         27.8850   23.6306   -1.2965 C.3       4 UNK        -0.2001 
     24 N          26.0644   25.1830   -0.7471 N.am      4 UNK        -0.4303 
     25 C          25.1803   26.1727   -0.9434 C.2       3 UNK         0.5044 
     26 O          25.3170   27.0457   -1.8027 O.2       3 UNK        -0.5152 
     27 CA         23.9489   26.2149   -0.0210 C.3       3 UNK         0.0319 
     28 CB         22.8151   25.3500   -0.5938 C.3       3 UNK        -0.2001 
     29 N          24.2408   25.7919    1.3500 N.am      3 UNK        -0.4354 
     30 C          25.0340   26.4661    2.1932 C.2       2 UNK         0.4964 
     31 O          25.5587   27.5430    1.9171 O.2       2 UNK        -0.5047 
     32 CA         25.3071   25.8420    3.5734 C.3       2 UNK         0.0288 
     33 CB         24.3377   24.7002    3.9604 C.3       2 UNK        -0.2113 
     34 N          26.7036   25.4054    3.6844 N.am      2 UNK        -0.4145 
     35 C          27.3270   24.5005    2.9134 C.2       1 UNK         0.5006 
     36 O          26.7816   23.8836    1.9940 O.2       1 UNK        -0.5103 
     37 C          28.7793   29.2759   -0.9540 C.2       5 UNK         0.5055 
     38 O          29.4506   30.1727   -0.4402 O.2       5 UNK        -0.5220 
     39 N          27.4432   29.1839   -0.8199 N.am      6 UNK        -0.4450 
     40 CA         26.5178   30.1461   -0.2003 C.3       6 UNK         0.0367 
     41 CB         26.3441   31.3609   -1.1359 C.3       6 UNK        -0.1929 
     42 C          26.8599   30.5808    1.2423 C.2       6 UNK         0.5070 
     43 O          26.4179   31.6496    1.6681 O.2       6 UNK        -0.5237 
     44 N          27.6534   29.7680    1.9571 N.am      7 UNK        -0.4739 
     45 CA         28.2362   30.0321    3.2789 C.3       7 UNK         0.0276 
     46 CB         27.1457   29.9915    4.3697 C.3       7 UNK        -0.1927 
     47 C          29.0825   31.3243    3.3158 C.2       7 UNK         0.5013 
     48 O          29.0845   32.0283    4.3273 O.2       7 UNK        -0.5193 
     49 N          29.7805   31.6196    2.2061 N.am      8 UNK        -0.4253 
     50 CA         30.5876   32.8310    2.0093 C.3       8 UNK         0.0242 
     51 CB         31.0061   32.9177    0.5326 C.3       8 UNK        -0.2000 
     52 C          31.8223   32.9409    2.9249 C.2       8 UNK         0.4948 
     53 O          32.3495   34.0418    3.0925 O.2       8 UNK        -0.5275 
     54 N          32.2570   31.8163    3.4996 N.am      9 UNK        -0.4246 
     55 CA         33.3098   31.7108    4.5009 C.3       9 UNK         0.0261 
     56 CB         34.6487   31.3999    3.8087 C.3       9 UNK        -0.1959 
     57 C          32.9171   30.5883    5.4657 C.2       9 UNK         0.5033 
     58 O          32.1217   29.7186    5.0961 O.2       9 UNK        -0.5390 
     59 N          33.5088   30.5906    6.6663 N.am      10 UNK        -0.4215 
     60 CA         33.3363   29.5551    7.6915 C.3       10 UNK         0.0240 
     61 CB         33.6872   30.1501    9.0688 C.3       10 UNK        -0.1982 
     62 C          34.1589   28.2929    7.3599 C.2       10 UNK         0.4970 
     63 O          35.0656   27.9269    8.1106 O.2       10 UNK        -0.4916 
     64 N          33.8526   27.6838    6.2105 N.am      11 UNK        -0.4279 
     65 CA         34.5072   26.4865    5.6737 C.3       11 UNK         0.1003 
     66 C          34.1518   25.1846    6.4506 C.2       11 UNK         0.5709 
     67 N          34.8766   24.1022    6.2029 N.am      11 UNK        -0.7358 
     68 O          33.2311   25.1368    7.2652 O.2       11 UNK        -0.4999 
     69 C69        34.2494   26.3672    4.1464 C.3       12 UNK        -0.0954 
     70 S70        35.6754   25.6639    3.2555 S.3       12 UNK        -0.2268 
     71 C71        35.2034   25.9886    1.5211 C.3       12 UNK         0.0203 
     72 H72        31.3463   28.1536    3.1371 H         1 UNK         0.0888 
     73 H73        31.8385   26.9771    1.9191 H         1 UNK         0.0888 
     74 H74        30.2738   27.7952    1.7853 H         1 UNK         0.0888 
     75 H75        29.3192   25.5996    1.6518 H         1 UNK         0.3017 
     76 H76        28.9205   24.2777    4.3021 H         1 UNK         0.0873 
     77 H77        29.3551   22.9124    1.5971 H         1 UNK         0.0745 
     78 H78        28.6571   22.1124    2.9813 H         1 UNK         0.0745 
     79 H79        32.7591   21.4875    2.0838 H         1 UNK         0.0705 
     80 H80        31.2860   21.5059    1.1550 H         1 UNK         0.0705 
     81 H81        33.9314   23.7146    2.5666 H         1 UNK         0.1334 
     82 H82        33.8565   26.4333   -0.7502 H         1 UNK         0.1417 
     83 H83        31.0064   23.2343   -0.5069 H         1 UNK         0.1562 
     84 H84        30.6944   24.9896   -2.1605 H         1 UNK         0.0748 
     85 H85        32.2380   24.6559   -2.8894 H         1 UNK         0.0748 
     86 H86        31.4775   28.8094   -1.1328 H         1 UNK         0.0940 
     87 H87        30.9362   27.3168   -0.4274 H         1 UNK         0.0940 
     88 H88        29.5607   28.6697   -2.8076 H         1 UNK         0.0703 
     89 H89        28.2879   26.8856   -2.9581 H         1 UNK         0.3081 
     90 H90        27.0757   25.1502   -2.5680 H         1 UNK         0.0719 
     91 H91        28.1555   23.4575   -0.2565 H         1 UNK         0.0809 
     92 H92        27.1701   22.8607   -1.5868 H         1 UNK         0.0809 
     93 H93        28.7817   23.4820   -1.8981 H         1 UNK         0.0809 
     94 H94        25.9510   24.5747    0.0554 H         1 UNK         0.2990 
     95 H95        23.6016   27.2499    0.0148 H         1 UNK         0.0690 
     96 H96        22.5631   25.6606   -1.6089 H         1 UNK         0.0788 
     97 H97        21.9079   25.4376    0.0044 H         1 UNK         0.0788 
     98 H98        23.0911   24.2954   -0.6347 H         1 UNK         0.0788 
     99 H99        23.8654   24.9039    1.6502 H         1 UNK         0.2993 
    100 H100       25.1727   26.6465    4.2983 H         1 UNK         0.0949 
    101 H101       24.5211   24.3666    4.9819 H         1 UNK         0.0767 
    102 H102       23.2999   25.0339    3.9177 H         1 UNK         0.0767 
    103 H103       24.4341   23.8288    3.3120 H         1 UNK         0.0767 
    104 H104       27.2563   25.8931    4.3757 H         1 UNK         0.3013 
    105 H105       26.9855   28.3878   -1.2490 H         1 UNK         0.3121 
    106 H106       25.5557   29.6355   -0.1339 H         1 UNK         0.0774 
    107 H107       25.5593   32.0283   -0.7779 H         1 UNK         0.0815 
    108 H108       27.2625   31.9449   -1.2071 H         1 UNK         0.0815 
    109 H109       26.0642   31.0503   -2.1425 H         1 UNK         0.0815 
    110 H110       27.9132   28.8938    1.5215 H         1 UNK         0.2987 
    111 H111       28.9286   29.2151    3.4828 H         1 UNK         0.0949 
    112 H112       26.4466   30.8227    4.2732 H         1 UNK         0.0806 
    113 H113       26.5732   29.0652    4.3215 H         1 UNK         0.0806 
    114 H114       27.5859   30.0497    5.3659 H         1 UNK         0.0806 
    115 H115       29.6812   31.0124    1.3969 H         1 UNK         0.3010 
    116 H116       29.9491   33.6882    2.2328 H         1 UNK         0.0829 
    117 H117       31.6199   32.0653    0.2382 H         1 UNK         0.0813 
    118 H118       30.1365   32.9451   -0.1246 H         1 UNK         0.0813 
    119 H119       31.5857   33.8216    0.3398 H         1 UNK         0.0813 
    120 H120       31.7264   30.9637    3.3724 H         1 UNK         0.3038 
    121 H121       33.3856   32.6442    5.0629 H         1 UNK         0.0769 
    122 H122       35.4591   31.3202    4.5342 H         1 UNK         0.0811 
    123 H123       34.9215   32.1865    3.1049 H         1 UNK         0.0811 
    124 H124       34.6084   30.4586    3.2585 H         1 UNK         0.0811 
    125 H125       34.1781   31.3182    6.8745 H         1 UNK         0.3204 
    126 H126       32.2856   29.2572    7.7185 H         1 UNK         0.0748 
    127 H127       33.5422   29.4138    9.8605 H         1 UNK         0.0771 
    128 H128       34.7259   30.4801    9.1159 H         1 UNK         0.0771 
    129 H129       33.0526   31.0046    9.3047 H         1 UNK         0.0771 
    130 H130       33.0855   28.0655    5.6665 H         1 UNK         0.2980 
    131 H131       35.5761   26.6485    5.8275 H         1 UNK         0.0545 
    132 H132       34.6654   23.2454    6.6894 H         1 UNK         0.3459 
    133 H133       35.6167   24.1264    5.5183 H         1 UNK         0.3459 
    134 H134       33.3547   25.7781    3.9392 H         1 UNK         0.0616 
    135 H135       34.0634   27.3521    3.7139 H         1 UNK         0.0616 
    136 H136       35.0054   27.0562    1.4128 H         1 UNK         0.0634 
    137 H137       36.0667   25.7701    0.8916 H         1 UNK         0.0634 
@<TRIPOS>BOND
     1    1    2 1    
     2    1   72 1    
     3    1   73 1    
     4    1   74 1    
     5    2    3 2    
     6    2    4 am   BACKBONE|DICT|INTERRES
     7    4    5 1    
     8    4   75 1    
     9    5    6 1    
    10    5   35 1    
    11    5   76 1    
    12    6    7 1    
    13    6   77 1    
    14    6   78 1    
    15    7    8 1    
    16    8    9 1    
    17    8   79 1    
    18    8   80 1    
    19    9   10 ar   
    20    9   14 ar   
    21   10   11 ar   
    22   10   81 1    
    23   11   12 ar   
    24   11   71 1    
    25   12   13 ar   
    26   12   82 1    
    27   13   14 ar   
    28   13   15 1    
    29   14   83 1    
    30   15   16 1    
    31   15   84 1    
    32   15   85 1    
    33   16   17 1    
    34   17   18 1    
    35   17   86 1    
    36   17   87 1    
    37   18   19 1    
    38   18   37 1    
    39   18   88 1    
    40   19   20 am   BACKBONE|DICT|INTERRES
    41   19   89 1    
    42   20   21 2    
    43   20   22 1    
    44   22   23 1    
    45   22   24 1    
    46   22   90 1    
    47   23   91 1    
    48   23   92 1    
    49   23   93 1    
    50   24   25 am   BACKBONE|DICT|INTERRES
    51   24   94 1    
    52   25   26 2    
    53   25   27 1    
    54   27   28 1    
    55   27   29 1    
    56   27   95 1    
    57   28   96 1    
    58   28   97 1    
    59   28   98 1    
    60   29   30 am   BACKBONE|DICT|INTERRES
    61   29   99 1    
    62   30   31 2    
    63   30   32 1    
    64   32   33 1    
    65   32   34 1    
    66   32  100 1    
    67   33  101 1    
    68   33  102 1    
    69   33  103 1    
    70   34   35 am   BACKBONE|DICT|INTERRES
    71   34  104 1    
    72   35   36 2    
    73   37   38 2    
    74   37   39 am   BACKBONE|DICT|INTERRES
    75   39   40 1    
    76   39  105 1    
    77   40   41 1    
    78   40   42 1    
    79   40  106 1    
    80   41  107 1    
    81   41  108 1    
    82   41  109 1    
    83   42   43 2    
    84   42   44 am   BACKBONE|DICT|INTERRES
    85   44   45 1    
    86   44  110 1    
    87   45   46 1    
    88   45   47 1    
    89   45  111 1    
    90   46  112 1    
    91   46  113 1    
    92   46  114 1    
    93   47   48 2    
    94   47   49 am   BACKBONE|DICT|INTERRES
    95   49   50 1    
    96   49  115 1    
    97   50   51 1    
    98   50   52 1    
    99   50  116 1    
   100   51  117 1    
   101   51  118 1    
   102   51  119 1    
   103   52   53 2    
   104   52   54 am   BACKBONE|DICT|INTERRES
   105   54   55 1    
   106   54  120 1    
   107   55   56 1    
   108   55   57 1    
   109   55  121 1    
   110   56  122 1    
   111   56  123 1    
   112   56  124 1    
   113   57   58 2    
   114   57   59 am   BACKBONE|DICT|INTERRES
   115   59   60 1    
   116   59  125 1    
   117   60   61 1    
   118   60   62 1    
   119   60  126 1    
   120   61  127 1    
   121   61  128 1    
   122   61  129 1    
   123   62   63 2    
   124   62   64 am   BACKBONE|DICT|INTERRES
   125   64   65 1    
   126   64  130 1    
   127   65   66 1    
   128   65   69 1    
   129   65  131 1    
   130   66   67 am   BACKBONE|DICT|INTERRES
   131   66   68 2    
   132   67  132 1    
   133   67  133 1    
   134   69   70 1    
   135   69  134 1    
   136   69  135 1    
   137   70   71 1    
   138   71  136 1    
   139   71  137 1    
@<TRIPOS>SUBSTRUCTURE
     1 UNK         1 GROUP             0       ****    0 ROOT    
