@<TRIPOS>MOLECULE
3R136
137   139    1
SMALL
USER_CHARGES


@<TRIPOS>ATOM
      1 CA         29.7716   18.2944   -1.9213 C.3       0 UNK        -0.1979 
      2 C          29.2893   19.7374   -1.8874 C.2       0 UNK         0.4864 
      3 O          28.7768   20.2343   -2.8919 O.2       0 UNK        -0.5359 
      4 N          29.4577   20.4144   -0.7444 N.am      1 UNK        -0.4318 
      5 CA         29.0142   21.7924   -0.5115 C.3       1 UNK         0.0824 
      6 C6         29.6247   22.3774    0.7858 C.3       12 UNK        -0.0944 
      7 S7         31.4132   22.6773    0.6068 S.3       12 UNK        -0.2672 
      8 C8         31.4913   24.4915    0.7388 C.3       12 UNK         0.0333 
      9 C9         31.5927   24.9425    2.1891 C.ar      12 UNK        -0.0807 
     10 C10        32.8496   25.0650    2.7855 C.ar      12 UNK        -0.0894 
     11 C11        32.9703   25.4916    4.1093 C.ar      12 UNK        -0.0804 
     12 C12        31.8190   25.8084    4.8354 C.ar      12 UNK        -0.0824 
     13 C13        30.5496   25.6928    4.2574 C.ar      12 UNK        -0.0762 
     14 C14        30.4465   25.2426    2.9333 C.ar      12 UNK        -0.0782 
     15 C15        29.3284   26.0324    5.1181 C.3       12 UNK         0.0230 
     16 S16        27.7741   26.3839    4.2196 S.3       12 UNK        -0.2608 
     17 C17        28.1961   27.9121    3.3177 C.3       12 UNK        -0.0989 
     18 CA         27.9259   27.7696    1.7979 C.3       5 UNK         0.0716 
     19 N          26.5020   27.6228    1.4730 N.am      5 UNK        -0.4135 
     20 C          25.5400   28.5568    1.5734 C.2       4 UNK         0.5031 
     21 O          25.7276   29.7092    1.9636 O.2       4 UNK        -0.5229 
     22 CA         24.1097   28.1492    1.1666 C.3       4 UNK         0.0329 
     23 CB         23.8187   28.5952   -0.2760 C.3       4 UNK        -0.2001 
     24 N          23.8551   26.7128    1.2815 N.am      4 UNK        -0.4303 
     25 C          23.7982   26.0297    2.4336 C.2       3 UNK         0.5044 
     26 O          23.8229   26.5607    3.5442 O.2       3 UNK        -0.5152 
     27 CA         23.7147   24.4928    2.3364 C.3       3 UNK         0.0319 
     28 CB         22.2929   24.0107    2.6686 C.3       3 UNK        -0.2001 
     29 N          24.1206   23.9275    1.0410 N.am      3 UNK        -0.4354 
     30 C          25.3346   24.0457    0.4856 C.2       2 UNK         0.4964 
     31 O          26.2511   24.7191    0.9655 O.2       2 UNK        -0.5047 
     32 CA         25.5343   23.3571   -0.8726 C.3       2 UNK         0.0288 
     33 CB         25.1517   24.3137   -2.0146 C.3       2 UNK        -0.2113 
     34 N          26.9319   22.9598   -1.0310 N.am      2 UNK        -0.4145 
     35 C          27.4778   21.8825   -0.4530 C.2       1 UNK         0.5006 
     36 O          26.8321   21.0193    0.1491 O.2       1 UNK        -0.5103 
     37 C          28.5878   28.8895    0.9706 C.2       5 UNK         0.5055 
     38 O          28.8635   29.9719    1.4889 O.2       5 UNK        -0.5220 
     39 N          28.8368   28.5911   -0.3122 N.am      6 UNK        -0.4450 
     40 CA         29.4622   29.4887   -1.2920 C.3       6 UNK         0.0367 
     41 CB         29.2427   28.9061   -2.6992 C.3       6 UNK        -0.1929 
     42 C          30.9603   29.7805   -1.0506 C.2       6 UNK         0.5070 
     43 O          31.5299   30.6022   -1.7707 O.2       6 UNK        -0.5237 
     44 N          31.5801   29.1061   -0.0716 N.am      7 UNK        -0.4739 
     45 CA         32.9542   29.3371    0.3821 C.3       7 UNK         0.0276 
     46 CB         33.3287   28.2389    1.3901 C.3       7 UNK        -0.1927 
     47 C          33.1435   30.7289    1.0140 C.2       7 UNK         0.5013 
     48 O          32.1730   31.3302    1.4835 O.2       7 UNK        -0.5193 
     49 N          34.4001   31.1980    1.0391 N.am      8 UNK        -0.4253 
     50 CA         34.8291   32.4919    1.5830 C.3       8 UNK         0.0242 
     51 CB         36.3602   32.6010    1.4856 C.3       8 UNK        -0.2000 
     52 C          34.3548   32.7023    3.0309 C.2       8 UNK         0.4948 
     53 O          34.8050   31.9851    3.9274 O.2       8 UNK        -0.5275 
     54 N          33.4006   33.6296    3.2061 N.am      9 UNK        -0.4246 
     55 CA         32.6885   33.9499    4.4517 C.3       9 UNK         0.0261 
     56 CB         33.6341   34.6747    5.4336 C.3       9 UNK        -0.1959 
     57 C          31.9896   32.7345    5.1011 C.2       9 UNK         0.5033 
     58 O          31.8645   32.6943    6.3269 O.2       9 UNK        -0.5390 
     59 N          31.5987   31.7405    4.2841 N.am      10 UNK        -0.4215 
     60 CA         31.0803   30.4231    4.6800 C.3       10 UNK         0.0240 
     61 CB         29.6624   30.5570    5.2769 C.3       10 UNK        -0.1982 
     62 C          32.0421   29.6364    5.5990 C.2       10 UNK         0.4970 
     63 O          31.5818   28.8373    6.4157 O.2       10 UNK        -0.4916 
     64 N          33.3510   29.9043    5.4726 N.am      11 UNK        -0.4279 
     65 CA         34.4274   29.4359    6.3598 C.3       11 UNK         0.1003 
     66 C          34.3642   30.0121    7.8093 C.2       11 UNK         0.5709 
     67 N          33.5956   31.0606    8.0847 N.am      11 UNK        -0.7358 
     68 O          35.0533   29.5244    8.7027 O.2       11 UNK        -0.4999 
     69 C69        34.6293   27.8939    6.3302 C.3       12 UNK        -0.0954 
     70 S70        35.0269   27.2652    4.6652 S.3       12 UNK        -0.2268 
     71 C71        34.3464   25.5810    4.7518 C.3       12 UNK         0.0203 
     72 H72        30.5194   18.1669   -2.7036 H         1 UNK         0.0888 
     73 H73        30.2173   17.9912   -0.9739 H         1 UNK         0.0888 
     74 H74        28.9379   17.6253   -2.1333 H         1 UNK         0.0888 
     75 H75        29.8770   19.9530    0.0498 H         1 UNK         0.3017 
     76 H76        29.3536   22.3949   -1.3575 H         1 UNK         0.0873 
     77 H77        29.4643   21.7041    1.6301 H         1 UNK         0.0745 
     78 H78        29.1315   23.3123    1.0566 H         1 UNK         0.0745 
     79 H79        30.6293   24.9477    0.2497 H         1 UNK         0.0705 
     80 H80        32.3651   24.8404    0.1861 H         1 UNK         0.0705 
     81 H81        33.7375   24.8230    2.2173 H         1 UNK         0.1334 
     82 H82        31.9110   26.1414    5.8602 H         1 UNK         0.1417 
     83 H83        29.4756   25.1162    2.4793 H         1 UNK         0.1562 
     84 H84        29.5552   26.8928    5.7503 H         1 UNK         0.0748 
     85 H85        29.1468   25.1960    5.7940 H         1 UNK         0.0748 
     86 H86        29.2481   28.1407    3.4946 H         1 UNK         0.0940 
     87 H87        27.6293   28.7440    3.7390 H         1 UNK         0.0940 
     88 H88        28.3951   26.8424    1.4686 H         1 UNK         0.0703 
     89 H89        26.2325   26.6866    1.1867 H         1 UNK         0.3081 
     90 H90        23.4178   28.6686    1.8332 H         1 UNK         0.0719 
     91 H91        24.4707   28.0957   -0.9939 H         1 UNK         0.0809 
     92 H92        22.7861   28.3863   -0.5562 H         1 UNK         0.0809 
     93 H93        23.9719   29.6694   -0.3901 H         1 UNK         0.0809 
     94 H94        23.7999   26.1894    0.4206 H         1 UNK         0.2990 
     95 H95        24.3957   24.0933    3.0910 H         1 UNK         0.0690 
     96 H96        22.2409   22.9225    2.7099 H         1 UNK         0.0788 
     97 H97        21.5673   24.3557    1.9309 H         1 UNK         0.0788 
     98 H98        21.9702   24.3840    3.6418 H         1 UNK         0.0788 
     99 H99        23.4221   23.3793    0.5589 H         1 UNK         0.2993 
    100 H100       24.9010   22.4682   -0.9239 H         1 UNK         0.0949 
    101 H101       25.2962   23.8446   -2.9882 H         1 UNK         0.0767 
    102 H102       24.1017   24.6024   -1.9502 H         1 UNK         0.0767 
    103 H103       25.7442   25.2297   -1.9934 H         1 UNK         0.0767 
    104 H104       27.5382   23.6350   -1.4731 H         1 UNK         0.3013 
    105 H105       28.5677   27.6802   -0.6554 H         1 UNK         0.3121 
    106 H106       28.9450   30.4491   -1.2382 H         1 UNK         0.0774 
    107 H107       29.6443   29.5703   -3.4659 H         1 UNK         0.0815 
    108 H108       29.7347   27.9399   -2.8170 H         1 UNK         0.0815 
    109 H109       28.1823   28.7743   -2.9152 H         1 UNK         0.0815 
    110 H110       31.0241   28.4759    0.4841 H         1 UNK         0.2987 
    111 H111       33.6118   29.2624   -0.4867 H         1 UNK         0.0949 
    112 H112       34.3502   28.3631    1.7519 H         1 UNK         0.0806 
    113 H113       32.6743   28.2455    2.2633 H         1 UNK         0.0806 
    114 H114       33.2710   27.2514    0.9336 H         1 UNK         0.0806 
    115 H115       35.1333   30.6160    0.6609 H         1 UNK         0.3010 
    116 H116       34.3951   33.2704    0.9522 H         1 UNK         0.0829 
    117 H117       36.7001   32.5353    0.4518 H         1 UNK         0.0813 
    118 H118       36.7087   33.5568    1.8795 H         1 UNK         0.0813 
    119 H119       36.8583   31.8145    2.0545 H         1 UNK         0.0813 
    120 H120       33.0731   34.1247    2.3874 H         1 UNK         0.3038 
    121 H121       31.8922   34.6450    4.1818 H         1 UNK         0.0769 
    122 H122       33.0908   35.0402    6.3059 H         1 UNK         0.0811 
    123 H123       34.1080   35.5374    4.9656 H         1 UNK         0.0811 
    124 H124       34.4225   34.0136    5.7954 H         1 UNK         0.0811 
    125 H125       31.7706   31.8419    3.2846 H         1 UNK         0.3204 
    126 H126       31.0018   29.8411    3.7606 H         1 UNK         0.0748 
    127 H127       29.2391   29.5821    5.5192 H         1 UNK         0.0771 
    128 H128       29.6631   31.1425    6.1965 H         1 UNK         0.0771 
    129 H129       28.9833   31.0368    4.5718 H         1 UNK         0.0771 
    130 H130       33.6461   30.6035    4.7986 H         1 UNK         0.2980 
    131 H131       35.3338   29.8788    5.9459 H         1 UNK         0.0545 
    132 H132       33.5822   31.4206    9.0251 H         1 UNK         0.3459 
    133 H133       33.0199   31.4996    7.3728 H         1 UNK         0.3459 
    134 H134       35.4564   27.6017    6.9792 H         1 UNK         0.0616 
    135 H135       33.7477   27.3860    6.7210 H         1 UNK         0.0616 
    136 H136       34.3047   25.2393    5.7870 H         1 UNK         0.0634 
    137 H137       35.0372   24.9063    4.2440 H         1 UNK         0.0634 
@<TRIPOS>BOND
     1    1    2 1    
     2    1   72 1    
     3    1   73 1    
     4    1   74 1    
     5    2    3 2    
     6    2    4 am   BACKBONE|DICT|INTERRES
     7    4    5 1    
     8    4   75 1    
     9    5    6 1    
    10    5   35 1    
    11    5   76 1    
    12    6    7 1    
    13    6   77 1    
    14    6   78 1    
    15    7    8 1    
    16    8    9 1    
    17    8   79 1    
    18    8   80 1    
    19    9   10 ar   
    20    9   14 ar   
    21   10   11 ar   
    22   10   81 1    
    23   11   12 ar   
    24   11   71 1    
    25   12   13 ar   
    26   12   82 1    
    27   13   14 ar   
    28   13   15 1    
    29   14   83 1    
    30   15   16 1    
    31   15   84 1    
    32   15   85 1    
    33   16   17 1    
    34   17   18 1    
    35   17   86 1    
    36   17   87 1    
    37   18   19 1    
    38   18   37 1    
    39   18   88 1    
    40   19   20 am   BACKBONE|DICT|INTERRES
    41   19   89 1    
    42   20   21 2    
    43   20   22 1    
    44   22   23 1    
    45   22   24 1    
    46   22   90 1    
    47   23   91 1    
    48   23   92 1    
    49   23   93 1    
    50   24   25 am   BACKBONE|DICT|INTERRES
    51   24   94 1    
    52   25   26 2    
    53   25   27 1    
    54   27   28 1    
    55   27   29 1    
    56   27   95 1    
    57   28   96 1    
    58   28   97 1    
    59   28   98 1    
    60   29   30 am   BACKBONE|DICT|INTERRES
    61   29   99 1    
    62   30   31 2    
    63   30   32 1    
    64   32   33 1    
    65   32   34 1    
    66   32  100 1    
    67   33  101 1    
    68   33  102 1    
    69   33  103 1    
    70   34   35 am   BACKBONE|DICT|INTERRES
    71   34  104 1    
    72   35   36 2    
    73   37   38 2    
    74   37   39 am   BACKBONE|DICT|INTERRES
    75   39   40 1    
    76   39  105 1    
    77   40   41 1    
    78   40   42 1    
    79   40  106 1    
    80   41  107 1    
    81   41  108 1    
    82   41  109 1    
    83   42   43 2    
    84   42   44 am   BACKBONE|DICT|INTERRES
    85   44   45 1    
    86   44  110 1    
    87   45   46 1    
    88   45   47 1    
    89   45  111 1    
    90   46  112 1    
    91   46  113 1    
    92   46  114 1    
    93   47   48 2    
    94   47   49 am   BACKBONE|DICT|INTERRES
    95   49   50 1    
    96   49  115 1    
    97   50   51 1    
    98   50   52 1    
    99   50  116 1    
   100   51  117 1    
   101   51  118 1    
   102   51  119 1    
   103   52   53 2    
   104   52   54 am   BACKBONE|DICT|INTERRES
   105   54   55 1    
   106   54  120 1    
   107   55   56 1    
   108   55   57 1    
   109   55  121 1    
   110   56  122 1    
   111   56  123 1    
   112   56  124 1    
   113   57   58 2    
   114   57   59 am   BACKBONE|DICT|INTERRES
   115   59   60 1    
   116   59  125 1    
   117   60   61 1    
   118   60   62 1    
   119   60  126 1    
   120   61  127 1    
   121   61  128 1    
   122   61  129 1    
   123   62   63 2    
   124   62   64 am   BACKBONE|DICT|INTERRES
   125   64   65 1    
   126   64  130 1    
   127   65   66 1    
   128   65   69 1    
   129   65  131 1    
   130   66   67 am   BACKBONE|DICT|INTERRES
   131   66   68 2    
   132   67  132 1    
   133   67  133 1    
   134   69   70 1    
   135   69  134 1    
   136   69  135 1    
   137   70   71 1    
   138   71  136 1    
   139   71  137 1    
@<TRIPOS>SUBSTRUCTURE
     1 UNK         1 GROUP             0       ****    0 ROOT    
