@<TRIPOS>MOLECULE
3R136
137   139    1
SMALL
USER_CHARGES


@<TRIPOS>ATOM
      1 CA         26.8797   18.7265    1.5573 C.3       0 UNK        -0.1979 
      2 C          27.4995   19.8837    0.7880 C.2       0 UNK         0.4864 
      3 O          27.3054   19.9851   -0.4240 O.2       0 UNK        -0.5359 
      4 N          28.2446   20.7540    1.4833 N.am      1 UNK        -0.4318 
      5 CA         28.9318   21.9216    0.9120 C.3       1 UNK         0.0824 
      6 C6         29.9872   22.5052    1.8831 C.3       12 UNK        -0.0944 
      7 S7         31.2144   21.2664    2.4302 S.3       12 UNK        -0.2672 
      8 C8         32.5226   21.4215    1.1702 C.3       12 UNK         0.0333 
      9 C9         33.1891   22.7886    1.2048 C.ar      12 UNK        -0.0807 
     10 C10        34.0226   23.1394    2.2700 C.ar      12 UNK        -0.0894 
     11 C11        34.6012   24.4103    2.3296 C.ar      12 UNK        -0.0804 
     12 C12        34.3431   25.3333    1.3106 C.ar      12 UNK        -0.0824 
     13 C13        33.5124   24.9926    0.2369 C.ar      12 UNK        -0.0762 
     14 C14        32.9553   23.7109    0.1818 C.ar      12 UNK        -0.0782 
     15 C15        33.1995   26.0193   -0.8483 C.3       12 UNK         0.0230 
     16 S16        31.4091   26.1854   -1.1740 S.3       12 UNK        -0.2608 
     17 C17        30.7672   26.6025    0.4811 C.3       12 UNK        -0.0989 
     18 CA         30.0132   27.9519    0.4916 C.3       5 UNK         0.0716 
     19 N          28.7285   27.8801   -0.1977 N.am      5 UNK        -0.4135 
     20 C          28.3123   28.7419   -1.1338 C.2       4 UNK         0.5031 
     21 O          29.0405   29.5663   -1.6869 O.2       4 UNK        -0.5229 
     22 CA         26.8164   28.7069   -1.5064 C.3       4 UNK         0.0329 
     23 CB         26.6071   27.9106   -2.8046 C.3       4 UNK        -0.2001 
     24 N          25.9475   28.1539   -0.4618 N.am      4 UNK        -0.4303 
     25 C          25.8421   28.6034    0.7984 C.2       3 UNK         0.5044 
     26 O          26.4232   29.5995    1.2275 O.2       3 UNK        -0.5152 
     27 CA         25.0095   27.7501    1.7710 C.3       3 UNK         0.0319 
     28 CB         23.5809   28.3043    1.8819 C.3       3 UNK        -0.2001 
     29 N          24.9548   26.3225    1.4257 N.am      3 UNK        -0.4354 
     30 C          26.0104   25.5027    1.3044 C.2       2 UNK         0.4964 
     31 O          27.1782   25.8704    1.4605 O.2       2 UNK        -0.5047 
     32 CA         25.6776   24.0488    0.9233 C.3       2 UNK         0.0288 
     33 CB         25.1280   23.9601   -0.5169 C.3       2 UNK        -0.2113 
     34 N          26.7913   23.1112    1.1224 N.am      2 UNK        -0.4145 
     35 C          27.9551   23.0280    0.4546 C.2       1 UNK         0.5006 
     36 O          28.2755   23.7557   -0.4865 O.2       1 UNK        -0.5103 
     37 C          29.7663   28.4155    1.9356 C.2       5 UNK         0.5055 
     38 O          30.3142   29.4401    2.3407 O.2       5 UNK        -0.5220 
     39 N          28.9561   27.6538    2.6860 N.am      6 UNK        -0.4450 
     40 CA         28.8306   27.7240    4.1445 C.3       6 UNK         0.0367 
     41 CB         27.9273   26.5792    4.6308 C.3       6 UNK        -0.1929 
     42 C          28.3530   29.0675    4.7216 C.2       6 UNK         0.5070 
     43 O          28.6855   29.3630    5.8703 O.2       6 UNK        -0.5237 
     44 N          27.5940   29.8479    3.9425 N.am      7 UNK        -0.4739 
     45 CA         27.0875   31.1654    4.3354 C.3       7 UNK         0.0276 
     46 CB         25.5546   31.1636    4.1919 C.3       7 UNK        -0.1927 
     47 C          27.7142   32.3045    3.5108 C.2       7 UNK         0.5013 
     48 O          27.3379   33.4586    3.7230 O.2       7 UNK        -0.5193 
     49 N          28.6279   31.9827    2.5843 N.am      8 UNK        -0.4253 
     50 CA         29.2293   32.9344    1.6466 C.3       8 UNK         0.0242 
     51 CB         28.9638   32.4555    0.2113 C.3       8 UNK        -0.2000 
     52 C          30.7369   33.1022    1.8771 C.2       8 UNK         0.4948 
     53 O          31.2291   34.2308    1.8310 O.2       8 UNK        -0.5275 
     54 N          31.4444   31.9894    2.1003 N.am      9 UNK        -0.4246 
     55 CA         32.8853   31.9385    2.3340 C.3       9 UNK         0.0261 
     56 CB         33.4401   30.6932    1.6150 C.3       9 UNK        -0.1959 
     57 C          33.1801   31.8668    3.8389 C.2       9 UNK         0.5033 
     58 O          32.2668   31.6774    4.6466 O.2       9 UNK        -0.5390 
     59 N          34.4722   31.9408    4.1899 N.am      10 UNK        -0.4215 
     60 CA         34.9883   31.7403    5.5525 C.3       10 UNK         0.0240 
     61 CB         36.4996   32.0233    5.5685 C.3       10 UNK        -0.1982 
     62 C          34.6943   30.3417    6.1358 C.2       10 UNK         0.4970 
     63 O          34.6870   30.1875    7.3575 O.2       10 UNK        -0.4916 
     64 N          34.4339   29.3652    5.2561 N.am      11 UNK        -0.4279 
     65 CA         33.9014   28.0366    5.5862 C.3       11 UNK         0.1003 
     66 C          32.4260   28.0423    6.0952 C.2       11 UNK         0.5709 
     67 N          31.6733   29.1282    5.9550 N.am      11 UNK        -0.7358 
     68 O          31.9564   27.0422    6.6314 O.2       11 UNK        -0.4999 
     69 C69        34.0930   27.0599    4.3900 C.3       12 UNK        -0.0954 
     70 S70        34.5305   25.3732    4.9254 S.3       12 UNK        -0.2268 
     71 C71        35.4982   24.7791    3.5022 C.3       12 UNK         0.0203 
     72 H72        27.1367   18.7559    2.6160 H         1 UNK         0.0888 
     73 H73        25.7939   18.7572    1.4708 H         1 UNK         0.0888 
     74 H74        27.2276   17.7772    1.1508 H         1 UNK         0.0888 
     75 H75        28.4002   20.5983    2.4696 H         1 UNK         0.3017 
     76 H76        29.4569   21.5826    0.0162 H         1 UNK         0.0873 
     77 H77        30.5016   23.3525    1.4286 H         1 UNK         0.0745 
     78 H78        29.5009   22.9029    2.7761 H         1 UNK         0.0745 
     79 H79        33.2746   20.6509    1.3457 H         1 UNK         0.0705 
     80 H80        32.0989   21.2168    0.1858 H         1 UNK         0.0705 
     81 H81        34.2036   22.4281    3.0646 H         1 UNK         0.1334 
     82 H82        34.7808   26.3209    1.3613 H         1 UNK         0.1417 
     83 H83        32.3075   23.4460   -0.6432 H         1 UNK         0.1562 
     84 H84        33.7010   25.7237   -1.7706 H         1 UNK         0.0748 
     85 H85        33.5956   27.0003   -0.5807 H         1 UNK         0.0748 
     86 H86        30.1179   25.7878    0.8083 H         1 UNK         0.0940 
     87 H87        31.5965   26.6291    1.1906 H         1 UNK         0.0940 
     88 H88        30.6560   28.7021    0.0252 H         1 UNK         0.0703 
     89 H89        28.0605   27.2166    0.1780 H         1 UNK         0.3081 
     90 H90        26.5028   29.7387   -1.6778 H         1 UNK         0.0719 
     91 H91        26.8796   26.8612   -2.6820 H         1 UNK         0.0809 
     92 H92        25.5695   27.9537   -3.1361 H         1 UNK         0.0809 
     93 H93        27.2198   28.3136   -3.6124 H         1 UNK         0.0809 
     94 H94        25.4266   27.3246   -0.7057 H         1 UNK         0.2990 
     95 H95        25.4798   27.8326    2.7521 H         1 UNK         0.0690 
     96 H96        23.0094   27.7792    2.6476 H         1 UNK         0.0788 
     97 H97        23.0394   28.2189    0.9389 H         1 UNK         0.0788 
     98 H98        23.5909   29.3599    2.1571 H         1 UNK         0.0788 
     99 H99        24.0317   25.9387    1.2797 H         1 UNK         0.2993 
    100 H100       24.8921   23.7171    1.6044 H         1 UNK         0.0949 
    101 H101       24.9255   22.9266   -0.7991 H         1 UNK         0.0767 
    102 H102       24.1912   24.5086   -0.6199 H         1 UNK         0.0767 
    103 H103       25.8251   24.3737   -1.2466 H         1 UNK         0.0767 
    104 H104       26.6671   22.4624    1.8864 H         1 UNK         0.3013 
    105 H105       28.4633   26.8794    2.2448 H         1 UNK         0.3121 
    106 H106       29.8291   27.5463    4.5465 H         1 UNK         0.0774 
    107 H107       26.9100   26.6770    4.2527 H         1 UNK         0.0815 
    108 H108       27.8697   26.5638    5.7201 H         1 UNK         0.0815 
    109 H109       28.3103   25.6086    4.3149 H         1 UNK         0.0815 
    110 H110       27.3632   29.5480    2.9998 H         1 UNK         0.2987 
    111 H111       27.3259   31.3741    5.3805 H         1 UNK         0.0949 
    112 H112       25.2468   31.0531    3.1520 H         1 UNK         0.0806 
    113 H113       25.1024   30.3537    4.7644 H         1 UNK         0.0806 
    114 H114       25.1258   32.0968    4.5592 H         1 UNK         0.0806 
    115 H115       28.9336   31.0186    2.5237 H         1 UNK         0.3010 
    116 H116       28.7726   33.9203    1.7563 H         1 UNK         0.0829 
    117 H117       27.8967   32.3391    0.0204 H         1 UNK         0.0813 
    118 H118       29.3516   33.1677   -0.5182 H         1 UNK         0.0813 
    119 H119       29.4436   31.4964    0.0179 H         1 UNK         0.0813 
    120 H120       30.9606   31.0982    2.1962 H         1 UNK         0.3038 
    121 H121       33.3672   32.8294    1.9257 H         1 UNK         0.0769 
    122 H122       33.0433   29.7696    2.0393 H         1 UNK         0.0811 
    123 H123       34.5275   30.6436    1.6791 H         1 UNK         0.0811 
    124 H124       33.1848   30.7047    0.5551 H         1 UNK         0.0811 
    125 H125       35.1608   32.1062    3.4691 H         1 UNK         0.3204 
    126 H126       34.4956   32.4679    6.2009 H         1 UNK         0.0748 
    127 H127       36.9071   31.9122    6.5746 H         1 UNK         0.0771 
    128 H128       37.0463   31.3388    4.9186 H         1 UNK         0.0771 
    129 H129       36.7171   33.0416    5.2453 H         1 UNK         0.0771 
    130 H130       34.4706   29.5932    4.2756 H         1 UNK         0.2980 
    131 H131       34.5037   27.6776    6.4230 H         1 UNK         0.0545 
    132 H132       30.7092   29.1107    6.2618 H         1 UNK         0.3459 
    133 H133       32.0270   29.9684    5.5080 H         1 UNK         0.3459 
    134 H134       33.2081   27.0184    3.7512 H         1 UNK         0.0616 
    135 H135       34.9011   27.4112    3.7466 H         1 UNK         0.0616 
    136 H136       36.2333   25.5297    3.2082 H         1 UNK         0.0634 
    137 H137       36.0703   23.9034    3.8126 H         1 UNK         0.0634 
@<TRIPOS>BOND
     1    1    2 1    
     2    1   72 1    
     3    1   73 1    
     4    1   74 1    
     5    2    3 2    
     6    2    4 am   BACKBONE|DICT|INTERRES
     7    4    5 1    
     8    4   75 1    
     9    5    6 1    
    10    5   35 1    
    11    5   76 1    
    12    6    7 1    
    13    6   77 1    
    14    6   78 1    
    15    7    8 1    
    16    8    9 1    
    17    8   79 1    
    18    8   80 1    
    19    9   10 ar   
    20    9   14 ar   
    21   10   11 ar   
    22   10   81 1    
    23   11   12 ar   
    24   11   71 1    
    25   12   13 ar   
    26   12   82 1    
    27   13   14 ar   
    28   13   15 1    
    29   14   83 1    
    30   15   16 1    
    31   15   84 1    
    32   15   85 1    
    33   16   17 1    
    34   17   18 1    
    35   17   86 1    
    36   17   87 1    
    37   18   19 1    
    38   18   37 1    
    39   18   88 1    
    40   19   20 am   BACKBONE|DICT|INTERRES
    41   19   89 1    
    42   20   21 2    
    43   20   22 1    
    44   22   23 1    
    45   22   24 1    
    46   22   90 1    
    47   23   91 1    
    48   23   92 1    
    49   23   93 1    
    50   24   25 am   BACKBONE|DICT|INTERRES
    51   24   94 1    
    52   25   26 2    
    53   25   27 1    
    54   27   28 1    
    55   27   29 1    
    56   27   95 1    
    57   28   96 1    
    58   28   97 1    
    59   28   98 1    
    60   29   30 am   BACKBONE|DICT|INTERRES
    61   29   99 1    
    62   30   31 2    
    63   30   32 1    
    64   32   33 1    
    65   32   34 1    
    66   32  100 1    
    67   33  101 1    
    68   33  102 1    
    69   33  103 1    
    70   34   35 am   BACKBONE|DICT|INTERRES
    71   34  104 1    
    72   35   36 2    
    73   37   38 2    
    74   37   39 am   BACKBONE|DICT|INTERRES
    75   39   40 1    
    76   39  105 1    
    77   40   41 1    
    78   40   42 1    
    79   40  106 1    
    80   41  107 1    
    81   41  108 1    
    82   41  109 1    
    83   42   43 2    
    84   42   44 am   BACKBONE|DICT|INTERRES
    85   44   45 1    
    86   44  110 1    
    87   45   46 1    
    88   45   47 1    
    89   45  111 1    
    90   46  112 1    
    91   46  113 1    
    92   46  114 1    
    93   47   48 2    
    94   47   49 am   BACKBONE|DICT|INTERRES
    95   49   50 1    
    96   49  115 1    
    97   50   51 1    
    98   50   52 1    
    99   50  116 1    
   100   51  117 1    
   101   51  118 1    
   102   51  119 1    
   103   52   53 2    
   104   52   54 am   BACKBONE|DICT|INTERRES
   105   54   55 1    
   106   54  120 1    
   107   55   56 1    
   108   55   57 1    
   109   55  121 1    
   110   56  122 1    
   111   56  123 1    
   112   56  124 1    
   113   57   58 2    
   114   57   59 am   BACKBONE|DICT|INTERRES
   115   59   60 1    
   116   59  125 1    
   117   60   61 1    
   118   60   62 1    
   119   60  126 1    
   120   61  127 1    
   121   61  128 1    
   122   61  129 1    
   123   62   63 2    
   124   62   64 am   BACKBONE|DICT|INTERRES
   125   64   65 1    
   126   64  130 1    
   127   65   66 1    
   128   65   69 1    
   129   65  131 1    
   130   66   67 am   BACKBONE|DICT|INTERRES
   131   66   68 2    
   132   67  132 1    
   133   67  133 1    
   134   69   70 1    
   135   69  134 1    
   136   69  135 1    
   137   70   71 1    
   138   71  136 1    
   139   71  137 1    
@<TRIPOS>SUBSTRUCTURE
     1 UNK         1 GROUP             0       ****    0 ROOT    
