@<TRIPOS>MOLECULE
3R136
137   139    1
SMALL
USER_CHARGES


@<TRIPOS>ATOM
      1 CA         34.8918   26.2958   -1.9317 C.3       0 UNK        -0.1979 
      2 C          33.4379   26.3128   -1.4886 C.2       0 UNK         0.4864 
      3 O          32.9561   27.3448   -1.0143 O.2       0 UNK        -0.5359 
      4 N          32.7236   25.1879   -1.6407 N.am      1 UNK        -0.4318 
      5 CA         31.3101   25.0296   -1.2724 C.3       1 UNK         0.0824 
      6 C6         30.9634   23.5596   -0.8942 C.3       12 UNK        -0.0944 
      7 S7         29.9563   23.4964    0.6284 S.3       12 UNK        -0.2672 
      8 C8         31.1486   22.7747    1.7992 C.3       12 UNK         0.0333 
      9 C9         30.8200   23.1198    3.2448 C.ar      12 UNK        -0.0807 
     10 C10        31.6904   23.9263    3.9827 C.ar      12 UNK        -0.0894 
     11 C11        31.4396   24.2036    5.3287 C.ar      12 UNK        -0.0804 
     12 C12        30.2912   23.6853    5.9344 C.ar      12 UNK        -0.0824 
     13 C13        29.4023   22.8900    5.2030 C.ar      12 UNK        -0.0762 
     14 C14        29.6762   22.6034    3.8612 C.ar      12 UNK        -0.0782 
     15 C15        28.1578   22.3182    5.8656 C.3       12 UNK         0.0230 
     16 S16        26.6431   23.1611    5.3099 S.3       12 UNK        -0.2608 
     17 C17        26.8429   24.8250    6.0356 C.3       12 UNK        -0.0989 
     18 CA         27.2366   25.8962    4.9869 C.3       5 UNK         0.0716 
     19 N          26.2851   25.9452    3.8706 N.am      5 UNK        -0.4135 
     20 C          26.3100   26.8029    2.8423 C.2       4 UNK         0.5031 
     21 O          27.1569   27.6906    2.7057 O.2       4 UNK        -0.5229 
     22 CA         25.1614   26.6623    1.8246 C.3       4 UNK         0.0329 
     23 CB         23.8484   27.2041    2.4166 C.3       4 UNK        -0.2001 
     24 N          25.4312   27.3660    0.5682 N.am      4 UNK        -0.4303 
     25 C          26.3808   27.0288   -0.3131 C.2       3 UNK         0.5044 
     26 O          27.0794   26.0172   -0.2135 O.2       3 UNK        -0.5152 
     27 CA         26.5894   27.9778   -1.5051 C.3       3 UNK         0.0319 
     28 CB         26.3567   29.4648   -1.1562 C.3       3 UNK        -0.2001 
     29 N          27.9448   27.7861   -2.0135 N.am      3 UNK        -0.4354 
     30 C          28.3680   28.0446   -3.2550 C.2       2 UNK         0.4964 
     31 O          27.6444   28.5071   -4.1380 O.2       2 UNK        -0.5047 
     32 CA         29.8504   27.7664   -3.5761 C.3       2 UNK         0.0288 
     33 CB         30.6147   29.0900   -3.7537 C.3       2 UNK        -0.2113 
     34 N          30.5556   26.9597   -2.5755 N.am      2 UNK        -0.4145 
     35 C          30.3815   25.6517   -2.3453 C.2       1 UNK         0.5006 
     36 O          29.5703   24.9607   -2.9638 O.2       1 UNK        -0.5103 
     37 C          27.3833   27.2774    5.6593 C.2       5 UNK         0.5055 
     38 O          26.3920   27.8163    6.1556 O.2       5 UNK        -0.5220 
     39 N          28.6034   27.8275    5.6173 N.am      6 UNK        -0.4450 
     40 CA         29.0260   29.1464    6.1074 C.3       6 UNK         0.0367 
     41 CB         28.7504   29.3116    7.6159 C.3       6 UNK        -0.1929 
     42 C          28.5273   30.3568    5.2898 C.2       6 UNK         0.5070 
     43 O          28.9812   31.4708    5.5550 O.2       6 UNK        -0.5237 
     44 N          27.6510   30.1456    4.2980 N.am      7 UNK        -0.4739 
     45 CA         27.2860   31.1505    3.2921 C.3       7 UNK         0.0276 
     46 CB         25.8445   30.9015    2.8188 C.3       7 UNK        -0.1927 
     47 C          28.2581   31.1145    2.0993 C.2       7 UNK         0.5013 
     48 O          28.4486   32.1343    1.4353 O.2       7 UNK        -0.5193 
     49 N          28.8389   29.9336    1.8531 N.am      8 UNK        -0.4253 
     50 CA         29.8684   29.6406    0.8601 C.3       8 UNK         0.0242 
     51 CB         30.0615   28.1167    0.8511 C.3       8 UNK        -0.2000 
     52 C          31.2124   30.3408    1.1424 C.2       8 UNK         0.4948 
     53 O          31.4082   30.9193    2.2138 O.2       8 UNK        -0.5275 
     54 N          32.1416   30.2334    0.1797 N.am      9 UNK        -0.4246 
     55 CA         33.5310   30.6823    0.3210 C.3       9 UNK         0.0261 
     56 CB         34.2418   30.6238   -1.0413 C.3       9 UNK        -0.1959 
     57 C          34.2968   29.8700    1.3806 C.2       9 UNK         0.5033 
     58 O          35.0683   30.4489    2.1472 O.2       9 UNK        -0.5390 
     59 N          34.0362   28.5562    1.4358 N.am      10 UNK        -0.4215 
     60 CA         34.4289   27.6836    2.5412 C.3       10 UNK         0.0240 
     61 CB         34.2534   26.2154    2.1215 C.3       10 UNK        -0.1982 
     62 C          33.5875   28.0062    3.7889 C.2       10 UNK         0.4970 
     63 O          32.3602   27.9931    3.6990 O.2       10 UNK        -0.4916 
     64 N          34.2721   28.3059    4.9003 N.am      11 UNK        -0.4279 
     65 CA         33.7624   28.6998    6.2306 C.3       11 UNK         0.1003 
     66 C          32.8142   29.9363    6.3210 C.2       11 UNK         0.5709 
     67 N          32.4343   30.5880    5.2312 N.am      11 UNK        -0.7358 
     68 O          32.4505   30.3458    7.4208 O.2       11 UNK        -0.4999 
     69 C69        33.3042   27.5003    7.1144 C.3       12 UNK        -0.0954 
     70 S70        31.7768   26.6558    6.5774 S.3       12 UNK        -0.2268 
     71 C71        32.4373   25.0237    6.1323 C.3       12 UNK         0.0203 
     72 H72        35.2134   25.3004   -2.2369 H         1 UNK         0.0888 
     73 H73        35.0327   26.9743   -2.7724 H         1 UNK         0.0888 
     74 H74        35.5351   26.6263   -1.1169 H         1 UNK         0.0888 
     75 H75        33.1569   24.3829   -2.0709 H         1 UNK         0.3017 
     76 H76        31.1664   25.6309   -0.3734 H         1 UNK         0.0873 
     77 H77        30.4400   23.0242   -1.6878 H         1 UNK         0.0745 
     78 H78        31.8733   22.9799   -0.7321 H         1 UNK         0.0745 
     79 H79        31.1625   21.6909    1.6751 H         1 UNK         0.0705 
     80 H80        32.1528   23.1255    1.5555 H         1 UNK         0.0705 
     81 H81        32.5814   24.3183    3.5153 H         1 UNK         0.1334 
     82 H82        30.0969   23.8979    6.9769 H         1 UNK         0.1417 
     83 H83        28.9975   21.9796    3.2949 H         1 UNK         0.1562 
     84 H84        28.2296   22.3761    6.9529 H         1 UNK         0.0748 
     85 H85        28.0780   21.2573    5.6238 H         1 UNK         0.0748 
     86 H86        27.5829   24.7843    6.8372 H         1 UNK         0.0940 
     87 H87        25.8991   25.0911    6.5163 H         1 UNK         0.0940 
     88 H88        28.2017   25.6131    4.5605 H         1 UNK         0.0703 
     89 H89        25.5484   25.2566    3.9075 H         1 UNK         0.3081 
     90 H90        25.0361   25.6014    1.5973 H         1 UNK         0.0719 
     91 H91        23.9260   28.2611    2.6739 H         1 UNK         0.0809 
     92 H92        23.0201   27.0891    1.7171 H         1 UNK         0.0809 
     93 H93        23.5733   26.6697    3.3268 H         1 UNK         0.0809 
     94 H94        24.9215   28.2229    0.4159 H         1 UNK         0.2990 
     95 H95        25.8794   27.6781   -2.2786 H         1 UNK         0.0690 
     96 H96        26.6033   30.1149   -1.9956 H         1 UNK         0.0788 
     97 H97        26.9642   29.7778   -0.3077 H         1 UNK         0.0788 
     98 H98        25.3135   29.6605   -0.9074 H         1 UNK         0.0788 
     99 H99        28.5653   27.3071   -1.3758 H         1 UNK         0.2993 
    100 H100       29.8755   27.2234   -4.5234 H         1 UNK         0.0949 
    101 H101       31.6513   28.9156   -4.0438 H         1 UNK         0.0767 
    102 H102       30.1612   29.7021   -4.5348 H         1 UNK         0.0767 
    103 H103       30.6162   29.6813   -2.8373 H         1 UNK         0.0767 
    104 H104       31.3077   27.4127   -2.0654 H         1 UNK         0.3013 
    105 H105       29.3395   27.3028    5.1621 H         1 UNK         0.3121 
    106 H106       30.1068   29.1472    5.9793 H         1 UNK         0.0774 
    107 H107       29.2202   30.2193    7.9969 H         1 UNK         0.0815 
    108 H108       27.6845   29.3847    7.8319 H         1 UNK         0.0815 
    109 H109       29.1570   28.4764    8.1861 H         1 UNK         0.0815 
    110 H110       27.3344   29.1983    4.1228 H         1 UNK         0.2987 
    111 H111       27.3327   32.1484    3.7338 H         1 UNK         0.0949 
    112 H112       25.7455   29.9438    2.3085 H         1 UNK         0.0806 
    113 H113       25.1441   30.9122    3.6540 H         1 UNK         0.0806 
    114 H114       25.5279   31.6753    2.1183 H         1 UNK         0.0806 
    115 H115       28.5383   29.1481    2.4190 H         1 UNK         0.3010 
    116 H116       29.5036   29.9697   -0.1148 H         1 UNK         0.0829 
    117 H117       29.1219   27.5886    0.7000 H         1 UNK         0.0813 
    118 H118       30.7344   27.8188    0.0551 H         1 UNK         0.0813 
    119 H119       30.4883   27.7592    1.7893 H         1 UNK         0.0813 
    120 H120       31.9268   29.7107   -0.6566 H         1 UNK         0.3038 
    121 H121       33.5135   31.7232    0.6510 H         1 UNK         0.0769 
    122 H122       33.7359   31.2453   -1.7801 H         1 UNK         0.0811 
    123 H123       34.2906   29.6080   -1.4341 H         1 UNK         0.0811 
    124 H124       35.2664   30.9888   -0.9593 H         1 UNK         0.0811 
    125 H125       33.4186   28.1601    0.7336 H         1 UNK         0.3204 
    126 H126       35.4855   27.8540    2.7586 H         1 UNK         0.0748 
    127 H127       34.8856   25.9692    1.2690 H         1 UNK         0.0771 
    128 H128       34.5345   25.5442    2.9336 H         1 UNK         0.0771 
    129 H129       33.2202   25.9945    1.8485 H         1 UNK         0.0771 
    130 H130       35.2790   28.3197    4.8287 H         1 UNK         0.2980 
    131 H131       34.6644   29.0733    6.7167 H         1 UNK         0.0545 
    132 H132       32.6372   30.2195    4.3130 H         1 UNK         0.3459 
    133 H133       31.8218   31.3826    5.3227 H         1 UNK         0.3459 
    134 H134       33.1463   27.8336    8.1415 H         1 UNK         0.0616 
    135 H135       34.1146   26.7733    7.1792 H         1 UNK         0.0616 
    136 H136       32.7070   24.4850    7.0417 H         1 UNK         0.0634 
    137 H137       33.3597   25.1565    5.5644 H         1 UNK         0.0634 
@<TRIPOS>BOND
     1    1    2 1    
     2    1   72 1    
     3    1   73 1    
     4    1   74 1    
     5    2    3 2    
     6    2    4 am   BACKBONE|DICT|INTERRES
     7    4    5 1    
     8    4   75 1    
     9    5    6 1    
    10    5   35 1    
    11    5   76 1    
    12    6    7 1    
    13    6   77 1    
    14    6   78 1    
    15    7    8 1    
    16    8    9 1    
    17    8   79 1    
    18    8   80 1    
    19    9   10 ar   
    20    9   14 ar   
    21   10   11 ar   
    22   10   81 1    
    23   11   12 ar   
    24   11   71 1    
    25   12   13 ar   
    26   12   82 1    
    27   13   14 ar   
    28   13   15 1    
    29   14   83 1    
    30   15   16 1    
    31   15   84 1    
    32   15   85 1    
    33   16   17 1    
    34   17   18 1    
    35   17   86 1    
    36   17   87 1    
    37   18   19 1    
    38   18   37 1    
    39   18   88 1    
    40   19   20 am   BACKBONE|DICT|INTERRES
    41   19   89 1    
    42   20   21 2    
    43   20   22 1    
    44   22   23 1    
    45   22   24 1    
    46   22   90 1    
    47   23   91 1    
    48   23   92 1    
    49   23   93 1    
    50   24   25 am   BACKBONE|DICT|INTERRES
    51   24   94 1    
    52   25   26 2    
    53   25   27 1    
    54   27   28 1    
    55   27   29 1    
    56   27   95 1    
    57   28   96 1    
    58   28   97 1    
    59   28   98 1    
    60   29   30 am   BACKBONE|DICT|INTERRES
    61   29   99 1    
    62   30   31 2    
    63   30   32 1    
    64   32   33 1    
    65   32   34 1    
    66   32  100 1    
    67   33  101 1    
    68   33  102 1    
    69   33  103 1    
    70   34   35 am   BACKBONE|DICT|INTERRES
    71   34  104 1    
    72   35   36 2    
    73   37   38 2    
    74   37   39 am   BACKBONE|DICT|INTERRES
    75   39   40 1    
    76   39  105 1    
    77   40   41 1    
    78   40   42 1    
    79   40  106 1    
    80   41  107 1    
    81   41  108 1    
    82   41  109 1    
    83   42   43 2    
    84   42   44 am   BACKBONE|DICT|INTERRES
    85   44   45 1    
    86   44  110 1    
    87   45   46 1    
    88   45   47 1    
    89   45  111 1    
    90   46  112 1    
    91   46  113 1    
    92   46  114 1    
    93   47   48 2    
    94   47   49 am   BACKBONE|DICT|INTERRES
    95   49   50 1    
    96   49  115 1    
    97   50   51 1    
    98   50   52 1    
    99   50  116 1    
   100   51  117 1    
   101   51  118 1    
   102   51  119 1    
   103   52   53 2    
   104   52   54 am   BACKBONE|DICT|INTERRES
   105   54   55 1    
   106   54  120 1    
   107   55   56 1    
   108   55   57 1    
   109   55  121 1    
   110   56  122 1    
   111   56  123 1    
   112   56  124 1    
   113   57   58 2    
   114   57   59 am   BACKBONE|DICT|INTERRES
   115   59   60 1    
   116   59  125 1    
   117   60   61 1    
   118   60   62 1    
   119   60  126 1    
   120   61  127 1    
   121   61  128 1    
   122   61  129 1    
   123   62   63 2    
   124   62   64 am   BACKBONE|DICT|INTERRES
   125   64   65 1    
   126   64  130 1    
   127   65   66 1    
   128   65   69 1    
   129   65  131 1    
   130   66   67 am   BACKBONE|DICT|INTERRES
   131   66   68 2    
   132   67  132 1    
   133   67  133 1    
   134   69   70 1    
   135   69  134 1    
   136   69  135 1    
   137   70   71 1    
   138   71  136 1    
   139   71  137 1    
@<TRIPOS>SUBSTRUCTURE
     1 UNK         1 GROUP             0       ****    0 ROOT    
