@<TRIPOS>MOLECULE
3R136
137   139    1
SMALL
USER_CHARGES


@<TRIPOS>ATOM
      1 CA         25.9768   23.2627   -4.8897 C.3       0 UNK        -0.1979 
      2 C          26.3831   23.8800   -3.5604 C.2       0 UNK         0.4864 
      3 O          25.5151   24.2119   -2.7524 O.2       0 UNK        -0.5359 
      4 N          27.6960   24.0206   -3.3196 N.am      1 UNK        -0.4318 
      5 CA         28.2923   24.6201   -2.1162 C.3       1 UNK         0.0824 
      6 C6         29.8382   24.6650   -2.2255 C.3       12 UNK        -0.0944 
      7 S7         30.6540   25.5779   -0.8665 S.3       12 UNK        -0.2672 
      8 C8         31.6537   24.2743   -0.0786 C.3       12 UNK         0.0333 
      9 C9         31.5610   24.3441    1.4370 C.ar      12 UNK        -0.0807 
     10 C10        32.5003   25.0714    2.1764 C.ar      12 UNK        -0.0894 
     11 C11        32.4252   25.1097    3.5730 C.ar      12 UNK        -0.0804 
     12 C12        31.4004   24.4162    4.2241 C.ar      12 UNK        -0.0824 
     13 C13        30.4416   23.7090    3.4952 C.ar      12 UNK        -0.0762 
     14 C14        30.5355   23.6649    2.1017 C.ar      12 UNK        -0.0782 
     15 C15        29.2969   23.0123    4.2180 C.3       12 UNK         0.0230 
     16 S16        27.6920   23.8283    3.9288 S.3       12 UNK        -0.2608 
     17 C17        28.0257   25.5646    4.3999 C.3       12 UNK        -0.0989 
     18 CA         28.2437   26.4638    3.1515 C.3       5 UNK         0.0716 
     19 N          27.1090   26.4342    2.2173 N.am      5 UNK        -0.4135 
     20 C          25.8956   26.9777    2.3947 C.2       4 UNK         0.5031 
     21 O          25.5446   27.5739    3.4134 O.2       4 UNK        -0.5229 
     22 CA         24.9144   26.8627    1.2214 C.3       4 UNK         0.0329 
     23 CB         25.3898   27.7139    0.0299 C.3       4 UNK        -0.2001 
     24 N          24.7500   25.4745    0.7873 N.am      4 UNK        -0.4303 
     25 C          23.6168   24.7661    0.8989 C.2       3 UNK         0.5044 
     26 O          22.5962   25.1926    1.4416 O.2       3 UNK        -0.5152 
     27 CA         23.5839   23.3535    0.2837 C.3       3 UNK         0.0319 
     28 CB         22.6960   23.3352   -0.9721 C.3       3 UNK        -0.2001 
     29 N          24.9157   22.8558   -0.0680 N.am      3 UNK        -0.4354 
     30 C          25.7104   22.1831    0.7777 C.2       2 UNK         0.4964 
     31 O          25.3586   21.8362    1.9054 O.2       2 UNK        -0.5047 
     32 CA         27.1369   21.8301    0.3084 C.3       2 UNK         0.0288 
     33 CB         27.2300   20.3403   -0.0594 C.3       2 UNK        -0.2113 
     34 N          27.6403   22.6281   -0.8156 N.am      2 UNK        -0.4145 
     35 C          27.8122   23.9581   -0.8061 C.2       1 UNK         0.5006 
     36 O          27.5442   24.6699    0.1615 O.2       1 UNK        -0.5103 
     37 C          28.6923   27.9055    3.4943 C.2       5 UNK         0.5055 
     38 O          29.0936   28.1808    4.6262 O.2       5 UNK        -0.5220 
     39 N          28.5952   28.8045    2.5035 N.am      6 UNK        -0.4450 
     40 CA         28.8836   30.2364    2.6254 C.3       6 UNK         0.0367 
     41 CB         27.7181   31.0219    2.0002 C.3       6 UNK        -0.1929 
     42 C          30.2120   30.6398    1.9619 C.2       6 UNK         0.5070 
     43 O          30.6291   31.7897    2.1190 O.2       6 UNK        -0.5237 
     44 N          30.8488   29.7150    1.2276 N.am      7 UNK        -0.4739 
     45 CA         32.1056   29.9250    0.5008 C.3       7 UNK         0.0276 
     46 CB         32.4686   28.6403   -0.2581 C.3       7 UNK        -0.1927 
     47 C          33.2654   30.3463    1.4169 C.2       7 UNK         0.5013 
     48 O          33.2954   29.9484    2.5822 O.2       7 UNK        -0.5193 
     49 N          34.1907   31.1468    0.8678 N.am      8 UNK        -0.4253 
     50 CA         35.3413   31.7516    1.5547 C.3       8 UNK         0.0242 
     51 CB         36.3733   30.6726    1.9509 C.3       8 UNK        -0.2000 
     52 C          34.9219   32.6460    2.7400 C.2       8 UNK         0.4948 
     53 O          35.5527   32.5976    3.7971 O.2       8 UNK        -0.5275 
     54 N          33.8465   33.4262    2.5387 N.am      9 UNK        -0.4246 
     55 CA         33.2003   34.3175    3.5117 C.3       9 UNK         0.0261 
     56 CB         34.1015   35.5340    3.8151 C.3       9 UNK        -0.1959 
     57 C          32.7570   33.5628    4.7801 C.2       9 UNK         0.5033 
     58 O          33.1529   33.9305    5.8882 O.2       9 UNK        -0.5390 
     59 N          31.9629   32.5020    4.5731 N.am      10 UNK        -0.4215 
     60 CA         31.5100   31.5289    5.5725 C.3       10 UNK         0.0240 
     61 CB         30.5647   32.1809    6.6045 C.3       10 UNK        -0.1982 
     62 C          32.6816   30.7562    6.2081 C.2       10 UNK         0.4970 
     63 O          32.7929   30.6940    7.4345 O.2       10 UNK        -0.4916 
     64 N          33.5094   30.1570    5.3435 N.am      11 UNK        -0.4279 
     65 CA         34.5839   29.2099    5.6741 C.3       11 UNK         0.1003 
     66 C          35.7704   29.8408    6.4605 C.2       11 UNK         0.5709 
     67 N          36.1397   31.0860    6.1885 N.am      11 UNK        -0.7358 
     68 O          36.3806   29.1988    7.3132 O.2       11 UNK        -0.4999 
     69 C69        34.0514   27.8890    6.3060 C.3       12 UNK        -0.0954 
     70 S70        32.6394   27.1718    5.3960 S.3       12 UNK        -0.2268 
     71 C71        33.4468   25.8920    4.3880 C.3       12 UNK         0.0203 
     72 H72        25.4007   22.3536   -4.7197 H         1 UNK         0.0888 
     73 H73        25.3553   23.9601   -5.4508 H         1 UNK         0.0888 
     74 H74        26.8408   23.0082   -5.5034 H         1 UNK         0.0888 
     75 H75        28.3526   23.7232   -4.0277 H         1 UNK         0.3017 
     76 H76        27.9354   25.6518   -2.0844 H         1 UNK         0.0873 
     77 H77        30.1197   25.1672   -3.1525 H         1 UNK         0.0745 
     78 H78        30.2440   23.6558   -2.3085 H         1 UNK         0.0745 
     79 H79        32.6904   24.3779   -0.4023 H         1 UNK         0.0705 
     80 H80        31.3324   23.2849   -0.4060 H         1 UNK         0.0705 
     81 H81        33.2909   25.6025    1.6641 H         1 UNK         0.1334 
     82 H82        31.3375   24.4517    5.3033 H         1 UNK         0.1417 
     83 H83        29.7970   23.1193    1.5325 H         1 UNK         0.1562 
     84 H84        29.4835   22.9717    5.2923 H         1 UNK         0.0748 
     85 H85        29.2327   21.9772    3.8799 H         1 UNK         0.0748 
     86 H86        28.8926   25.5958    5.0618 H         1 UNK         0.0940 
     87 H87        27.1849   25.9318    4.9905 H         1 UNK         0.0940 
     88 H88        29.0819   26.0466    2.5932 H         1 UNK         0.0703 
     89 H89        27.2784   25.8897    1.3718 H         1 UNK         0.3081 
     90 H90        23.9600   27.2736    1.5573 H         1 UNK         0.0719 
     91 H91        26.3251   27.3440   -0.3922 H         1 UNK         0.0809 
     92 H92        24.6472   27.7184   -0.7682 H         1 UNK         0.0809 
     93 H93        25.5496   28.7512    0.3279 H         1 UNK         0.0809 
     94 H94        25.5649   25.0258    0.3842 H         1 UNK         0.2990 
     95 H95        23.1287   22.6882    1.0205 H         1 UNK         0.0690 
     96 H96        22.6507   22.3392   -1.4128 H         1 UNK         0.0788 
     97 H97        23.0592   24.0244   -1.7350 H         1 UNK         0.0788 
     98 H98        21.6735   23.6289   -0.7308 H         1 UNK         0.0788 
     99 H99        25.2672   23.1250   -0.9815 H         1 UNK         0.2993 
    100 H100       27.7929   22.0117    1.1614 H         1 UNK         0.0949 
    101 H101       28.2561   20.0501   -0.2867 H         1 UNK         0.0767 
    102 H102       26.8943   19.7114    0.7667 H         1 UNK         0.0767 
    103 H103       26.6109   20.0996   -0.9247 H         1 UNK         0.0767 
    104 H104       27.8539   22.1270   -1.6657 H         1 UNK         0.3013 
    105 H105       28.2458   28.4894    1.6101 H         1 UNK         0.3121 
    106 H106       28.9494   30.5184    3.6779 H         1 UNK         0.0774 
    107 H107       27.8686   32.0971    2.1074 H         1 UNK         0.0815 
    108 H108       27.6123   30.8122    0.9351 H         1 UNK         0.0815 
    109 H109       26.7725   30.7793    2.4858 H         1 UNK         0.0815 
    110 H110       30.4656   28.7827    1.1994 H         1 UNK         0.2987 
    111 H111       31.9325   30.7237   -0.2235 H         1 UNK         0.0949 
    112 H112       33.4082   28.7522   -0.8008 H         1 UNK         0.0806 
    113 H113       32.5824   27.7920    0.4183 H         1 UNK         0.0806 
    114 H114       31.7040   28.3876   -0.9925 H         1 UNK         0.0806 
    115 H115       34.0806   31.4065   -0.1032 H         1 UNK         0.3010 
    116 H116       35.8211   32.4143    0.8327 H         1 UNK         0.0829 
    117 H117       36.6690   30.0716    1.0912 H         1 UNK         0.0813 
    118 H118       37.2789   31.1273    2.3544 H         1 UNK         0.0813 
    119 H119       35.9838   29.9979    2.7131 H         1 UNK         0.0813 
    120 H120       33.3875   33.3617    1.6407 H         1 UNK         0.3038 
    121 H121       32.2898   34.6902    3.0395 H         1 UNK         0.0769 
    122 H122       33.5930   36.2411    4.4717 H         1 UNK         0.0811 
    123 H123       34.3648   36.0701    2.9035 H         1 UNK         0.0811 
    124 H124       35.0275   35.2397    4.3104 H         1 UNK         0.0811 
    125 H125       31.6781   32.2987    3.6164 H         1 UNK         0.3204 
    126 H126       30.9284   30.7831    5.0295 H         1 UNK         0.0748 
    127 H127       30.1426   31.4287    7.2721 H         1 UNK         0.0771 
    128 H128       31.0806   32.9126    7.2267 H         1 UNK         0.0771 
    129 H129       29.7307   32.6836    6.1150 H         1 UNK         0.0771 
    130 H130       33.3388   30.2528    4.3435 H         1 UNK         0.2980 
    131 H131       35.0157   28.9330    4.7124 H         1 UNK         0.0545 
    132 H132       36.9081   31.4914    6.6972 H         1 UNK         0.3459 
    133 H133       35.7067   31.6102    5.4323 H         1 UNK         0.3459 
    134 H134       34.8488   27.1466    6.3680 H         1 UNK         0.0616 
    135 H135       33.7257   28.0669    7.3321 H         1 UNK         0.0616 
    136 H136       33.9891   25.2039    5.0378 H         1 UNK         0.0634 
    137 H137       34.1845   26.3664    3.7389 H         1 UNK         0.0634 
@<TRIPOS>BOND
     1    1    2 1    
     2    1   72 1    
     3    1   73 1    
     4    1   74 1    
     5    2    3 2    
     6    2    4 am   BACKBONE|DICT|INTERRES
     7    4    5 1    
     8    4   75 1    
     9    5    6 1    
    10    5   35 1    
    11    5   76 1    
    12    6    7 1    
    13    6   77 1    
    14    6   78 1    
    15    7    8 1    
    16    8    9 1    
    17    8   79 1    
    18    8   80 1    
    19    9   10 ar   
    20    9   14 ar   
    21   10   11 ar   
    22   10   81 1    
    23   11   12 ar   
    24   11   71 1    
    25   12   13 ar   
    26   12   82 1    
    27   13   14 ar   
    28   13   15 1    
    29   14   83 1    
    30   15   16 1    
    31   15   84 1    
    32   15   85 1    
    33   16   17 1    
    34   17   18 1    
    35   17   86 1    
    36   17   87 1    
    37   18   19 1    
    38   18   37 1    
    39   18   88 1    
    40   19   20 am   BACKBONE|DICT|INTERRES
    41   19   89 1    
    42   20   21 2    
    43   20   22 1    
    44   22   23 1    
    45   22   24 1    
    46   22   90 1    
    47   23   91 1    
    48   23   92 1    
    49   23   93 1    
    50   24   25 am   BACKBONE|DICT|INTERRES
    51   24   94 1    
    52   25   26 2    
    53   25   27 1    
    54   27   28 1    
    55   27   29 1    
    56   27   95 1    
    57   28   96 1    
    58   28   97 1    
    59   28   98 1    
    60   29   30 am   BACKBONE|DICT|INTERRES
    61   29   99 1    
    62   30   31 2    
    63   30   32 1    
    64   32   33 1    
    65   32   34 1    
    66   32  100 1    
    67   33  101 1    
    68   33  102 1    
    69   33  103 1    
    70   34   35 am   BACKBONE|DICT|INTERRES
    71   34  104 1    
    72   35   36 2    
    73   37   38 2    
    74   37   39 am   BACKBONE|DICT|INTERRES
    75   39   40 1    
    76   39  105 1    
    77   40   41 1    
    78   40   42 1    
    79   40  106 1    
    80   41  107 1    
    81   41  108 1    
    82   41  109 1    
    83   42   43 2    
    84   42   44 am   BACKBONE|DICT|INTERRES
    85   44   45 1    
    86   44  110 1    
    87   45   46 1    
    88   45   47 1    
    89   45  111 1    
    90   46  112 1    
    91   46  113 1    
    92   46  114 1    
    93   47   48 2    
    94   47   49 am   BACKBONE|DICT|INTERRES
    95   49   50 1    
    96   49  115 1    
    97   50   51 1    
    98   50   52 1    
    99   50  116 1    
   100   51  117 1    
   101   51  118 1    
   102   51  119 1    
   103   52   53 2    
   104   52   54 am   BACKBONE|DICT|INTERRES
   105   54   55 1    
   106   54  120 1    
   107   55   56 1    
   108   55   57 1    
   109   55  121 1    
   110   56  122 1    
   111   56  123 1    
   112   56  124 1    
   113   57   58 2    
   114   57   59 am   BACKBONE|DICT|INTERRES
   115   59   60 1    
   116   59  125 1    
   117   60   61 1    
   118   60   62 1    
   119   60  126 1    
   120   61  127 1    
   121   61  128 1    
   122   61  129 1    
   123   62   63 2    
   124   62   64 am   BACKBONE|DICT|INTERRES
   125   64   65 1    
   126   64  130 1    
   127   65   66 1    
   128   65   69 1    
   129   65  131 1    
   130   66   67 am   BACKBONE|DICT|INTERRES
   131   66   68 2    
   132   67  132 1    
   133   67  133 1    
   134   69   70 1    
   135   69  134 1    
   136   69  135 1    
   137   70   71 1    
   138   71  136 1    
   139   71  137 1    
@<TRIPOS>SUBSTRUCTURE
     1 UNK         1 GROUP             0       ****    0 ROOT    
