@<TRIPOS>MOLECULE
3R136
137   139    1
SMALL
USER_CHARGES


@<TRIPOS>ATOM
      1 CA         29.6939   22.7629   -4.4093 C.3       0 UNK        -0.1979 
      2 C          29.1185   23.3341   -3.1219 C.2       0 UNK         0.4864 
      3 O          28.6087   24.4546   -3.1258 O.2       0 UNK        -0.5359 
      4 N          29.2049   22.5767   -2.0206 N.am      1 UNK        -0.4318 
      5 CA         28.6600   22.9393   -0.7114 C.3       1 UNK         0.0824 
      6 C6         29.2594   22.0438    0.4023 C.3       12 UNK        -0.0944 
      7 S7         28.7919   22.5590    2.0922 S.3       12 UNK        -0.2672 
      8 C8         30.3315   22.2784    3.0223 C.3       12 UNK         0.0333 
      9 C9         31.1673   23.5454    3.1060 C.ar      12 UNK        -0.0807 
     10 C10        31.0098   24.4113    4.1923 C.ar      12 UNK        -0.0894 
     11 C11        31.7501   25.5938    4.2704 C.ar      12 UNK        -0.0804 
     12 C12        32.6638   25.9010    3.2585 C.ar      12 UNK        -0.0824 
     13 C13        32.8448   25.0333    2.1789 C.ar      12 UNK        -0.0762 
     14 C14        32.0942   23.8555    2.1063 C.ar      12 UNK        -0.0782 
     15 C15        33.8609   25.3723    1.0996 C.3       12 UNK         0.0230 
     16 S16        33.2905   26.7361    0.0387 S.3       12 UNK        -0.2608 
     17 C17        31.9405   25.9419   -0.9070 C.3       12 UNK        -0.0989 
     18 CA         30.5626   26.6337   -0.7424 C.3       5 UNK         0.0716 
     19 N          30.1191   26.6444    0.6592 N.am      5 UNK        -0.4135 
     20 C          28.8438   26.5520    1.0513 C.2       4 UNK         0.5031 
     21 O          27.9028   26.3690    0.2741 O.2       4 UNK        -0.5229 
     22 CA         28.5670   26.6897    2.5539 C.3       4 UNK         0.0329 
     23 CB         28.5936   28.1583    3.0075 C.3       4 UNK        -0.2001 
     24 N          27.2562   26.1128    2.8181 N.am      4 UNK        -0.4303 
     25 C          26.9159   25.3471    3.8578 C.2       3 UNK         0.5044 
     26 O          27.6105   25.2123    4.8654 O.2       3 UNK        -0.5152 
     27 CA         25.6053   24.5427    3.7343 C.3       3 UNK         0.0319 
     28 CB         24.4131   25.2945    4.3588 C.3       3 UNK        -0.2001 
     29 N          25.3298   24.0785    2.3616 N.am      3 UNK        -0.4354 
     30 C          24.9307   24.7907    1.2961 C.2       2 UNK         0.4964 
     31 O          24.6192   25.9810    1.3384 O.2       2 UNK        -0.5047 
     32 CA         25.0458   24.0780   -0.0566 C.3       2 UNK         0.0288 
     33 CB         24.3465   24.8317   -1.2035 C.3       2 UNK        -0.2113 
     34 N          26.4740   23.9782   -0.3401 N.am      2 UNK        -0.4145 
     35 C          27.1176   22.8753   -0.7332 C.2       1 UNK         0.5006 
     36 O          26.5557   21.8267   -1.0606 O.2       1 UNK        -0.5103 
     37 C          30.5378   28.0382   -1.3919 C.2       5 UNK         0.5055 
     38 O          30.8925   28.1659   -2.5654 O.2       5 UNK        -0.5220 
     39 N          30.1412   29.0649   -0.6321 N.am      6 UNK        -0.4450 
     40 CA         30.0819   30.4651   -1.0342 C.3       6 UNK         0.0367 
     41 CB         31.4002   31.1553   -0.6311 C.3       6 UNK        -0.1929 
     42 C          28.8647   31.1191   -0.3657 C.2       6 UNK         0.5070 
     43 O          28.1356   30.4559    0.3750 O.2       6 UNK        -0.5237 
     44 N          28.6748   32.4200   -0.6207 N.am      7 UNK        -0.4739 
     45 CA         27.6060   33.2436   -0.0389 C.3       7 UNK         0.0276 
     46 CB         27.5165   34.5643   -0.8223 C.3       7 UNK        -0.1927 
     47 C          27.7655   33.5212    1.4712 C.2       7 UNK         0.5013 
     48 O          26.8203   34.0087    2.0931 O.2       7 UNK        -0.5193 
     49 N          28.9422   33.2170    2.0287 N.am      8 UNK        -0.4253 
     50 CA         29.2678   33.2849    3.4486 C.3       8 UNK         0.0242 
     51 CB         30.2156   34.4720    3.6903 C.3       8 UNK        -0.2000 
     52 C          29.9354   31.9660    3.8549 C.2       8 UNK         0.4948 
     53 O          30.4526   31.2454    2.9947 O.2       8 UNK        -0.5275 
     54 N          29.9418   31.6830    5.1634 N.am      9 UNK        -0.4246 
     55 CA         30.5531   30.4977    5.7687 C.3       9 UNK         0.0261 
     56 CB         29.9902   30.3066    7.1889 C.3       9 UNK        -0.1959 
     57 C          32.0920   30.5712    5.7522 C.2       9 UNK         0.5033 
     58 O          32.7174   30.7571    6.7977 O.2       9 UNK        -0.5390 
     59 N          32.6719   30.4091    4.5556 N.am      10 UNK        -0.4215 
     60 CA         34.1106   30.4493    4.2598 C.3       10 UNK         0.0240 
     61 CB         34.3073   30.2247    2.7508 C.3       10 UNK        -0.1982 
     62 C          34.9757   29.4588    5.0655 C.2       10 UNK         0.4970 
     63 O          36.1728   29.6982    5.2263 O.2       10 UNK        -0.4916 
     64 N          34.3569   28.3806    5.5593 N.am      11 UNK        -0.4279 
     65 CA         34.9447   27.4044    6.4830 C.3       11 UNK         0.1003 
     66 C          35.1291   27.9148    7.9440 C.2       11 UNK         0.5709 
     67 N          34.5697   29.0550    8.3352 N.am      11 UNK        -0.7358 
     68 O          35.8111   27.2672    8.7349 O.2       11 UNK        -0.4999 
     69 C69        34.1943   26.0470    6.4141 C.3       12 UNK        -0.0954 
     70 S70        32.4385   26.1002    6.9352 S.3       12 UNK        -0.2268 
     71 C71        31.5284   26.5604    5.4229 C.3       12 UNK         0.0203 
     72 H72        30.1246   21.7729   -4.2604 H         1 UNK         0.0888 
     73 H73        28.9133   22.6830   -5.1653 H         1 UNK         0.0888 
     74 H74        30.4751   23.4182   -4.7936 H         1 UNK         0.0888 
     75 H75        29.6029   21.6509   -2.0883 H         1 UNK         0.3017 
     76 H76        28.9656   23.9661   -0.5070 H         1 UNK         0.0873 
     77 H77        28.9594   21.0028    0.2661 H         1 UNK         0.0745 
     78 H78        30.3467   22.0536    0.3218 H         1 UNK         0.0745 
     79 H79        30.9055   21.4651    2.5757 H         1 UNK         0.0705 
     80 H80        30.0707   21.9431    4.0273 H         1 UNK         0.0705 
     81 H81        30.2891   24.1800    4.9655 H         1 UNK         0.1334 
     82 H82        33.2411   26.8140    3.3079 H         1 UNK         0.1417 
     83 H83        32.2294   23.1818    1.2718 H         1 UNK         0.1562 
     84 H84        34.0882   24.5006    0.4838 H         1 UNK         0.0748 
     85 H85        34.8005   25.6639    1.5714 H         1 UNK         0.0748 
     86 H86        31.8516   24.8954   -0.6141 H         1 UNK         0.0940 
     87 H87        32.2311   25.9145   -1.9591 H         1 UNK         0.0940 
     88 H88        29.8509   26.0442   -1.3224 H         1 UNK         0.0703 
     89 H89        30.8503   26.7604    1.3471 H         1 UNK         0.3081 
     90 H90        29.3260   26.1271    3.0913 H         1 UNK         0.0719 
     91 H91        29.5653   28.6150    2.8172 H         1 UNK         0.0809 
     92 H92        28.3997   28.2430    4.0767 H         1 UNK         0.0809 
     93 H93        27.8436   28.7542    2.4860 H         1 UNK         0.0809 
     94 H94        26.6086   26.1733    2.0388 H         1 UNK         0.2990 
     95 H95        25.7521   23.6322    4.3177 H         1 UNK         0.0690 
     96 H96        23.4926   24.7163    4.2795 H         1 UNK         0.0788 
     97 H97        24.2450   26.2636    3.8887 H         1 UNK         0.0788 
     98 H98        24.5896   25.4810    5.4189 H         1 UNK         0.0788 
     99 H99        25.6143   23.1238    2.1874 H         1 UNK         0.2993 
    100 H100       24.5942   23.0883    0.0432 H         1 UNK         0.0949 
    101 H101       23.2839   24.9614   -0.9946 H         1 UNK         0.0767 
    102 H102       24.7758   25.8228   -1.3574 H         1 UNK         0.0767 
    103 H103       24.4304   24.2838   -2.1422 H         1 UNK         0.0767 
    104 H104       27.0165   24.8139   -0.1212 H         1 UNK         0.3013 
    105 H105       29.7524   28.8813    0.2829 H         1 UNK         0.3121 
    106 H106       29.9439   30.5375   -2.1151 H         1 UNK         0.0774 
    107 H107       31.4274   32.1950   -0.9579 H         1 UNK         0.0815 
    108 H108       31.5449   31.1455    0.4501 H         1 UNK         0.0815 
    109 H109       32.2588   30.6579   -1.0828 H         1 UNK         0.0815 
    110 H110       29.3158   32.8919   -1.2430 H         1 UNK         0.2987 
    111 H111       26.6624   32.7074   -0.1633 H         1 UNK         0.0949 
    112 H112       27.3204   34.3873   -1.8800 H         1 UNK         0.0806 
    113 H113       26.7045   35.1886   -0.4461 H         1 UNK         0.0806 
    114 H114       28.4365   35.1446   -0.7417 H         1 UNK         0.0806 
    115 H115       29.6257   32.7302    1.4649 H         1 UNK         0.3010 
    116 H116       28.3604   33.4101    4.0435 H         1 UNK         0.0829 
    117 H117       29.7546   35.4124    3.3877 H         1 UNK         0.0813 
    118 H118       30.4732   34.5638    4.7461 H         1 UNK         0.0813 
    119 H119       31.1481   34.3633    3.1344 H         1 UNK         0.0813 
    120 H120       29.5296   32.3471    5.8033 H         1 UNK         0.3038 
    121 H121       30.2610   29.6242    5.1825 H         1 UNK         0.0769 
    122 H122       30.2145   31.1582    7.8326 H         1 UNK         0.0811 
    123 H123       30.4171   29.4203    7.6609 H         1 UNK         0.0811 
    124 H124       28.9084   30.1729    7.1727 H         1 UNK         0.0811 
    125 H125       32.0449   30.3847    3.7553 H         1 UNK         0.3204 
    126 H126       34.4612   31.4531    4.5074 H         1 UNK         0.0748 
    127 H127       35.3629   30.2782    2.4802 H         1 UNK         0.0771 
    128 H128       33.9392   29.2474    2.4352 H         1 UNK         0.0771 
    129 H129       33.7868   30.9829    2.1649 H         1 UNK         0.0771 
    130 H130       33.3663   28.2912    5.4079 H         1 UNK         0.2980 
    131 H131       35.9576   27.2111    6.1250 H         1 UNK         0.0545 
    132 H132       34.7091   29.3674    9.2824 H         1 UNK         0.3459 
    133 H133       33.9892   29.6030    7.7074 H         1 UNK         0.3459 
    134 H134       34.2687   25.6325    5.4100 H         1 UNK         0.0616 
    135 H135       34.6984   25.3168    7.0496 H         1 UNK         0.0616 
    136 H136       31.7919   27.5728    5.1231 H         1 UNK         0.0634 
    137 H137       30.4639   26.5944    5.6613 H         1 UNK         0.0634 
@<TRIPOS>BOND
     1    1    2 1    
     2    1   72 1    
     3    1   73 1    
     4    1   74 1    
     5    2    3 2    
     6    2    4 am   BACKBONE|DICT|INTERRES
     7    4    5 1    
     8    4   75 1    
     9    5    6 1    
    10    5   35 1    
    11    5   76 1    
    12    6    7 1    
    13    6   77 1    
    14    6   78 1    
    15    7    8 1    
    16    8    9 1    
    17    8   79 1    
    18    8   80 1    
    19    9   10 ar   
    20    9   14 ar   
    21   10   11 ar   
    22   10   81 1    
    23   11   12 ar   
    24   11   71 1    
    25   12   13 ar   
    26   12   82 1    
    27   13   14 ar   
    28   13   15 1    
    29   14   83 1    
    30   15   16 1    
    31   15   84 1    
    32   15   85 1    
    33   16   17 1    
    34   17   18 1    
    35   17   86 1    
    36   17   87 1    
    37   18   19 1    
    38   18   37 1    
    39   18   88 1    
    40   19   20 am   BACKBONE|DICT|INTERRES
    41   19   89 1    
    42   20   21 2    
    43   20   22 1    
    44   22   23 1    
    45   22   24 1    
    46   22   90 1    
    47   23   91 1    
    48   23   92 1    
    49   23   93 1    
    50   24   25 am   BACKBONE|DICT|INTERRES
    51   24   94 1    
    52   25   26 2    
    53   25   27 1    
    54   27   28 1    
    55   27   29 1    
    56   27   95 1    
    57   28   96 1    
    58   28   97 1    
    59   28   98 1    
    60   29   30 am   BACKBONE|DICT|INTERRES
    61   29   99 1    
    62   30   31 2    
    63   30   32 1    
    64   32   33 1    
    65   32   34 1    
    66   32  100 1    
    67   33  101 1    
    68   33  102 1    
    69   33  103 1    
    70   34   35 am   BACKBONE|DICT|INTERRES
    71   34  104 1    
    72   35   36 2    
    73   37   38 2    
    74   37   39 am   BACKBONE|DICT|INTERRES
    75   39   40 1    
    76   39  105 1    
    77   40   41 1    
    78   40   42 1    
    79   40  106 1    
    80   41  107 1    
    81   41  108 1    
    82   41  109 1    
    83   42   43 2    
    84   42   44 am   BACKBONE|DICT|INTERRES
    85   44   45 1    
    86   44  110 1    
    87   45   46 1    
    88   45   47 1    
    89   45  111 1    
    90   46  112 1    
    91   46  113 1    
    92   46  114 1    
    93   47   48 2    
    94   47   49 am   BACKBONE|DICT|INTERRES
    95   49   50 1    
    96   49  115 1    
    97   50   51 1    
    98   50   52 1    
    99   50  116 1    
   100   51  117 1    
   101   51  118 1    
   102   51  119 1    
   103   52   53 2    
   104   52   54 am   BACKBONE|DICT|INTERRES
   105   54   55 1    
   106   54  120 1    
   107   55   56 1    
   108   55   57 1    
   109   55  121 1    
   110   56  122 1    
   111   56  123 1    
   112   56  124 1    
   113   57   58 2    
   114   57   59 am   BACKBONE|DICT|INTERRES
   115   59   60 1    
   116   59  125 1    
   117   60   61 1    
   118   60   62 1    
   119   60  126 1    
   120   61  127 1    
   121   61  128 1    
   122   61  129 1    
   123   62   63 2    
   124   62   64 am   BACKBONE|DICT|INTERRES
   125   64   65 1    
   126   64  130 1    
   127   65   66 1    
   128   65   69 1    
   129   65  131 1    
   130   66   67 am   BACKBONE|DICT|INTERRES
   131   66   68 2    
   132   67  132 1    
   133   67  133 1    
   134   69   70 1    
   135   69  134 1    
   136   69  135 1    
   137   70   71 1    
   138   71  136 1    
   139   71  137 1    
@<TRIPOS>SUBSTRUCTURE
     1 UNK         1 GROUP             0       ****    0 ROOT    
