@<TRIPOS>MOLECULE
3R136
137   139    1
SMALL
USER_CHARGES


@<TRIPOS>ATOM
      1 CA         28.5219   20.5394    0.8335 C.3       0 UNK        -0.1979 
      2 C          28.6029   21.3290   -0.4639 C.2       0 UNK         0.4864 
      3 O          28.2273   20.8152   -1.5192 O.2       0 UNK        -0.5359 
      4 N          29.1017   22.5694   -0.3937 N.am      1 UNK        -0.4318 
      5 CA         29.2107   23.4877   -1.5320 C.3       1 UNK         0.0824 
      6 C6         30.2403   24.6135   -1.2649 C.3       12 UNK        -0.0944 
      7 S7         31.9395   23.9496   -1.2192 S.3       12 UNK        -0.2672 
      8 C8         32.7936   25.1148   -0.0988 C.3       12 UNK         0.0333 
      9 C9         32.4051   25.0371    1.3800 C.ar      12 UNK        -0.0807 
     10 C10        32.7701   26.0962    2.2190 C.ar      12 UNK        -0.0894 
     11 C11        32.4595   26.0716    3.5818 C.ar      12 UNK        -0.0804 
     12 C12        31.7767   24.9750    4.1099 C.ar      12 UNK        -0.0824 
     13 C13        31.3822   23.9200    3.2843 C.ar      12 UNK        -0.0762 
     14 C14        31.7182   23.9447    1.9281 C.ar      12 UNK        -0.0782 
     15 C15        30.5687   22.7669    3.8521 C.3       12 UNK         0.0230 
     16 S16        28.7810   23.0362    3.6103 S.3       12 UNK        -0.2608 
     17 C17        28.4599   24.4424    4.7314 C.3       12 UNK        -0.0989 
     18 CA         28.3494   25.7863    3.9677 C.3       5 UNK         0.0716 
     19 N          27.2022   25.7860    3.0473 N.am      5 UNK        -0.4135 
     20 C          26.8948   26.7557    2.1777 C.2       4 UNK         0.5031 
     21 O          27.4845   27.8356    2.1324 O.2       4 UNK        -0.5229 
     22 CA         25.7044   26.4810    1.2509 C.3       4 UNK         0.0329 
     23 CB         24.4005   27.0813    1.8135 C.3       4 UNK        -0.2001 
     24 N          25.9775   26.9004   -0.1283 N.am      4 UNK        -0.4303 
     25 C          25.9780   28.1292   -0.6723 C.2       3 UNK         0.5044 
     26 O          25.6588   29.1554   -0.0718 O.2       3 UNK        -0.5152 
     27 CA         26.3896   28.2487   -2.1577 C.3       3 UNK         0.0319 
     28 CB         27.5972   29.1846   -2.3382 C.3       3 UNK        -0.2001 
     29 N          26.6925   26.9656   -2.7996 N.am      3 UNK        -0.4354 
     30 C          25.7789   26.0859   -3.2316 C.2       2 UNK         0.4964 
     31 O          24.5655   26.2929   -3.2085 O.2       2 UNK        -0.5047 
     32 CA         26.3018   24.7340   -3.7525 C.3       2 UNK         0.0288 
     33 CB         26.4115   24.7590   -5.2860 C.3       2 UNK        -0.2113 
     34 N          27.5870   24.2993   -3.1847 N.am      2 UNK        -0.4145 
     35 C          27.8252   24.0640   -1.8851 C.2       1 UNK         0.5006 
     36 O          27.0142   24.3041   -0.9870 O.2       1 UNK        -0.5103 
     37 C          28.3916   26.9780    4.9527 C.2       5 UNK         0.5055 
     38 O          29.4588   27.2741    5.4891 O.2       5 UNK        -0.5220 
     39 N          27.2519   27.6469    5.1699 N.am      6 UNK        -0.4450 
     40 CA         27.1445   28.8650    5.9714 C.3       6 UNK         0.0367 
     41 CB         25.6779   29.0475    6.3971 C.3       6 UNK        -0.1929 
     42 C          27.6510   30.1328    5.2535 C.2       6 UNK         0.5070 
     43 O          27.9111   31.1222    5.9396 O.2       6 UNK        -0.5237 
     44 N          27.7457   30.1164    3.9142 N.am      7 UNK        -0.4739 
     45 CA         28.0278   31.3062    3.1001 C.3       7 UNK         0.0276 
     46 CB         26.7077   31.8087    2.4898 C.3       7 UNK        -0.1927 
     47 C          29.0780   31.0920    1.9971 C.2       7 UNK         0.5013 
     48 O          29.6071   32.0854    1.4966 O.2       7 UNK        -0.5193 
     49 N          29.3555   29.8371    1.6145 N.am      8 UNK        -0.4253 
     50 CA         30.2195   29.4657    0.4871 C.3       8 UNK         0.0242 
     51 CB         30.1571   27.9439    0.2828 C.3       8 UNK        -0.2000 
     52 C          31.6831   29.9354    0.5765 C.2       8 UNK         0.4948 
     53 O          32.3034   30.1419   -0.4678 O.2       8 UNK        -0.5275 
     54 N          32.2079   30.1062    1.7940 N.am      9 UNK        -0.4246 
     55 CA         33.5309   30.6566    2.0761 C.3       9 UNK         0.0261 
     56 CB         34.6310   29.6073    1.8129 C.3       9 UNK        -0.1959 
     57 C          33.5581   31.1273    3.5330 C.2       9 UNK         0.5033 
     58 O          32.6772   30.7590    4.3162 O.2       9 UNK        -0.5390 
     59 N          34.5929   31.8958    3.8901 N.am      10 UNK        -0.4215 
     60 CA         34.8610   32.3607    5.2533 C.3       10 UNK         0.0240 
     61 CB         35.6994   33.6518    5.1850 C.3       10 UNK        -0.1982 
     62 C          35.5282   31.2596    6.1033 C.2       10 UNK         0.4970 
     63 O          36.6460   31.4473    6.5881 O.2       10 UNK        -0.4916 
     64 N          34.8412   30.1197    6.2440 N.am      11 UNK        -0.4279 
     65 CA         35.2556   28.9791    7.0731 C.3       11 UNK         0.1003 
     66 C          35.2915   29.3293    8.5870 C.2       11 UNK         0.5709 
     67 N          36.2184   28.7482    9.3365 N.am      11 UNK        -0.7358 
     68 O          34.4648   30.0870    9.0929 O.2       11 UNK        -0.4999 
     69 C69        34.3597   27.7384    6.8256 C.3       12 UNK        -0.0954 
     70 S70        34.5196   27.0637    5.1356 S.3       12 UNK        -0.2268 
     71 C71        32.8280   27.2355    4.4874 C.3       12 UNK         0.0203 
     72 H72        27.5501   20.6864    1.3042 H         1 UNK         0.0888 
     73 H73        28.6519   19.4747    0.6411 H         1 UNK         0.0888 
     74 H74        29.2960   20.8476    1.5353 H         1 UNK         0.0888 
     75 H75        29.3328   22.9596    0.5076 H         1 UNK         0.3017 
     76 H76        29.5540   22.9118   -2.3949 H         1 UNK         0.0873 
     77 H77        30.2076   25.3735   -2.0480 H         1 UNK         0.0745 
     78 H78        30.0143   25.1234   -0.3268 H         1 UNK         0.0745 
     79 H79        33.8652   24.9258   -0.1738 H         1 UNK         0.0705 
     80 H80        32.6375   26.1282   -0.4702 H         1 UNK         0.0705 
     81 H81        33.2972   26.9454    1.8078 H         1 UNK         0.1334 
     82 H82        31.5279   24.9606    5.1620 H         1 UNK         0.1417 
     83 H83        31.4332   23.1094    1.3061 H         1 UNK         0.1562 
     84 H84        30.7809   22.6291    4.9135 H         1 UNK         0.0748 
     85 H85        30.8573   21.8355    3.3629 H         1 UNK         0.0748 
     86 H86        29.2454   24.4781    5.4880 H         1 UNK         0.0940 
     87 H87        27.5380   24.2411    5.2802 H         1 UNK         0.0940 
     88 H88        29.2360   25.8976    3.3407 H         1 UNK         0.0703 
     89 H89        26.6653   24.9309    3.0284 H         1 UNK         0.3081 
     90 H90        25.5685   25.3998    1.1926 H         1 UNK         0.0719 
     91 H91        24.1306   26.6069    2.7576 H         1 UNK         0.0809 
     92 H92        24.4921   28.1504    2.0084 H         1 UNK         0.0809 
     93 H93        23.5667   26.9346    1.1270 H         1 UNK         0.0809 
     94 H94        26.2847   26.1355   -0.7205 H         1 UNK         0.2990 
     95 H95        25.5410   28.7022   -2.6742 H         1 UNK         0.0690 
     96 H96        27.4572   30.1269   -1.8063 H         1 UNK         0.0788 
     97 H97        27.7483   29.4298   -3.3895 H         1 UNK         0.0788 
     98 H98        28.5161   28.7314   -1.9705 H         1 UNK         0.0788 
     99 H99        27.6670   26.7136   -2.8727 H         1 UNK         0.2993 
    100 H100       25.5585   23.9825   -3.4768 H         1 UNK         0.0949 
    101 H101       26.6674   23.7762   -5.6827 H         1 UNK         0.0767 
    102 H102       25.4641   25.0517   -5.7414 H         1 UNK         0.0767 
    103 H103       27.1685   25.4674   -5.6252 H         1 UNK         0.0767 
    104 H104       28.3154   24.0884   -3.8524 H         1 UNK         0.3013 
    105 H105       26.4182   27.3402    4.6912 H         1 UNK         0.3121 
    106 H106       27.7464   28.7402    6.8744 H         1 UNK         0.0774 
    107 H107       25.5621   29.9284    7.0304 H         1 UNK         0.0815 
    108 H108       25.0204   29.1776    5.5365 H         1 UNK         0.0815 
    109 H109       25.3199   28.1915    6.9694 H         1 UNK         0.0815 
    110 H110       27.5304   29.2602    3.4102 H         1 UNK         0.2987 
    111 H111       28.4305   32.1023    3.7303 H         1 UNK         0.0949 
    112 H112       26.2475   31.0505    1.8547 H         1 UNK         0.0806 
    113 H113       25.9898   32.0779    3.2646 H         1 UNK         0.0806 
    114 H114       26.8688   32.6959    1.8759 H         1 UNK         0.0806 
    115 H115       28.7957   29.0820    2.0031 H         1 UNK         0.3010 
    116 H116       29.7996   29.9454   -0.3983 H         1 UNK         0.0829 
    117 H117       30.7921   27.6352   -0.5478 H         1 UNK         0.0813 
    118 H118       30.4848   27.4060    1.1724 H         1 UNK         0.0813 
    119 H119       29.1454   27.6129    0.0517 H         1 UNK         0.0813 
    120 H120       31.6307   29.9696    2.6156 H         1 UNK         0.3038 
    121 H121       33.6902   31.5252    1.4334 H         1 UNK         0.0769 
    122 H122       34.5738   28.7745    2.5127 H         1 UNK         0.0811 
    123 H123       35.6236   30.0456    1.9197 H         1 UNK         0.0811 
    124 H124       34.5712   29.2016    0.8032 H         1 UNK         0.0811 
    125 H125       35.2907   32.1223    3.1954 H         1 UNK         0.3204 
    126 H126       33.9136   32.6093    5.7370 H         1 UNK         0.0748 
    127 H127       35.8897   34.0474    6.1838 H         1 UNK         0.0771 
    128 H128       36.6671   33.4830    4.7107 H         1 UNK         0.0771 
    129 H129       35.1823   34.4309    4.6245 H         1 UNK         0.0771 
    130 H130       33.9323   30.0549    5.8003 H         1 UNK         0.2980 
    131 H131       36.2740   28.7234    6.7733 H         1 UNK         0.0545 
    132 H132       36.2482   28.9510   10.3235 H         1 UNK         0.3459 
    133 H133       36.8929   28.1154    8.9349 H         1 UNK         0.3459 
    134 H134       33.3185   27.9755    7.0492 H         1 UNK         0.0616 
    135 H135       34.6338   26.9312    7.5076 H         1 UNK         0.0616 
    136 H136       32.1123   27.2952    5.3072 H         1 UNK         0.0634 
    137 H137       32.7388   28.1727    3.9419 H         1 UNK         0.0634 
@<TRIPOS>BOND
     1    1    2 1    
     2    1   72 1    
     3    1   73 1    
     4    1   74 1    
     5    2    3 2    
     6    2    4 am   BACKBONE|DICT|INTERRES
     7    4    5 1    
     8    4   75 1    
     9    5    6 1    
    10    5   35 1    
    11    5   76 1    
    12    6    7 1    
    13    6   77 1    
    14    6   78 1    
    15    7    8 1    
    16    8    9 1    
    17    8   79 1    
    18    8   80 1    
    19    9   10 ar   
    20    9   14 ar   
    21   10   11 ar   
    22   10   81 1    
    23   11   12 ar   
    24   11   71 1    
    25   12   13 ar   
    26   12   82 1    
    27   13   14 ar   
    28   13   15 1    
    29   14   83 1    
    30   15   16 1    
    31   15   84 1    
    32   15   85 1    
    33   16   17 1    
    34   17   18 1    
    35   17   86 1    
    36   17   87 1    
    37   18   19 1    
    38   18   37 1    
    39   18   88 1    
    40   19   20 am   BACKBONE|DICT|INTERRES
    41   19   89 1    
    42   20   21 2    
    43   20   22 1    
    44   22   23 1    
    45   22   24 1    
    46   22   90 1    
    47   23   91 1    
    48   23   92 1    
    49   23   93 1    
    50   24   25 am   BACKBONE|DICT|INTERRES
    51   24   94 1    
    52   25   26 2    
    53   25   27 1    
    54   27   28 1    
    55   27   29 1    
    56   27   95 1    
    57   28   96 1    
    58   28   97 1    
    59   28   98 1    
    60   29   30 am   BACKBONE|DICT|INTERRES
    61   29   99 1    
    62   30   31 2    
    63   30   32 1    
    64   32   33 1    
    65   32   34 1    
    66   32  100 1    
    67   33  101 1    
    68   33  102 1    
    69   33  103 1    
    70   34   35 am   BACKBONE|DICT|INTERRES
    71   34  104 1    
    72   35   36 2    
    73   37   38 2    
    74   37   39 am   BACKBONE|DICT|INTERRES
    75   39   40 1    
    76   39  105 1    
    77   40   41 1    
    78   40   42 1    
    79   40  106 1    
    80   41  107 1    
    81   41  108 1    
    82   41  109 1    
    83   42   43 2    
    84   42   44 am   BACKBONE|DICT|INTERRES
    85   44   45 1    
    86   44  110 1    
    87   45   46 1    
    88   45   47 1    
    89   45  111 1    
    90   46  112 1    
    91   46  113 1    
    92   46  114 1    
    93   47   48 2    
    94   47   49 am   BACKBONE|DICT|INTERRES
    95   49   50 1    
    96   49  115 1    
    97   50   51 1    
    98   50   52 1    
    99   50  116 1    
   100   51  117 1    
   101   51  118 1    
   102   51  119 1    
   103   52   53 2    
   104   52   54 am   BACKBONE|DICT|INTERRES
   105   54   55 1    
   106   54  120 1    
   107   55   56 1    
   108   55   57 1    
   109   55  121 1    
   110   56  122 1    
   111   56  123 1    
   112   56  124 1    
   113   57   58 2    
   114   57   59 am   BACKBONE|DICT|INTERRES
   115   59   60 1    
   116   59  125 1    
   117   60   61 1    
   118   60   62 1    
   119   60  126 1    
   120   61  127 1    
   121   61  128 1    
   122   61  129 1    
   123   62   63 2    
   124   62   64 am   BACKBONE|DICT|INTERRES
   125   64   65 1    
   126   64  130 1    
   127   65   66 1    
   128   65   69 1    
   129   65  131 1    
   130   66   67 am   BACKBONE|DICT|INTERRES
   131   66   68 2    
   132   67  132 1    
   133   67  133 1    
   134   69   70 1    
   135   69  134 1    
   136   69  135 1    
   137   70   71 1    
   138   71  136 1    
   139   71  137 1    
@<TRIPOS>SUBSTRUCTURE
     1 UNK         1 GROUP             0       ****    0 ROOT    
