@<TRIPOS>MOLECULE
3R136
137   139    1
SMALL
USER_CHARGES


@<TRIPOS>ATOM
      1 CA         26.3271   24.7752    5.4368 C.3       0 UNK        -0.1979 
      2 C          27.2742   23.7319    4.8684 C.2       0 UNK         0.4864 
      3 O          27.1051   22.5419    5.1385 O.2       0 UNK        -0.5359 
      4 N          28.2589   24.1673    4.0723 N.am      1 UNK        -0.4318 
      5 CA         29.1452   23.2899    3.3031 C.3       1 UNK         0.0824 
      6 C6         30.5058   23.9745    3.0121 C.3       12 UNK        -0.0944 
      7 S7         31.7493   22.8043    2.3623 S.3       12 UNK        -0.2672 
      8 C8         33.2272   23.8611    2.1751 C.3       12 UNK         0.0333 
      9 C9         33.1585   24.9536    1.1043 C.ar      12 UNK        -0.0807 
     10 C10        34.1763   25.9139    1.0723 C.ar      12 UNK        -0.0894 
     11 C11        34.1838   26.9226    0.1038 C.ar      12 UNK        -0.0804 
     12 C12        33.1506   26.9804   -0.8347 C.ar      12 UNK        -0.0824 
     13 C13        32.1183   26.0401   -0.8080 C.ar      12 UNK        -0.0762 
     14 C14        32.1379   25.0195    0.1461 C.ar      12 UNK        -0.0782 
     15 C15        30.9701   26.1347   -1.8006 C.3       12 UNK         0.0230 
     16 S16        29.8447   27.5089   -1.3999 S.3       12 UNK        -0.2608 
     17 C17        29.2705   27.0564    0.2721 C.3       12 UNK        -0.0989 
     18 CA         28.3384   28.1315    0.8807 C.3       5 UNK         0.0716 
     19 N          27.1522   28.3598    0.0523 N.am      5 UNK        -0.4135 
     20 C          26.3622   29.4398    0.0670 C.2       4 UNK         0.5031 
     21 O          26.5814   30.4249    0.7745 O.2       4 UNK        -0.5229 
     22 CA         25.0953   29.4211   -0.8147 C.3       4 UNK         0.0329 
     23 CB         25.3673   30.0600   -2.1909 C.3       4 UNK        -0.2001 
     24 N          24.4522   28.1003   -0.9362 N.am      4 UNK        -0.4303 
     25 C          24.9175   27.0036   -1.5494 C.2       3 UNK         0.5044 
     26 O          25.9637   26.9672   -2.2003 O.2       3 UNK        -0.5152 
     27 CA         24.1207   25.7037   -1.3410 C.3       3 UNK         0.0319 
     28 CB         23.3359   25.3357   -2.6101 C.3       3 UNK        -0.2001 
     29 N          25.0220   24.6026   -0.9857 N.am      3 UNK        -0.4354 
     30 C          25.7838   24.5802    0.1172 C.2       2 UNK         0.4964 
     31 O          25.6880   25.4078    1.0277 O.2       2 UNK        -0.5047 
     32 CA         26.8476   23.4762    0.2018 C.3       2 UNK         0.0288 
     33 CB         27.7413   23.4389   -1.0578 C.3       2 UNK        -0.2113 
     34 N          27.6593   23.7157    1.3926 N.am      2 UNK        -0.4145 
     35 C          28.4322   22.8175    2.0160 C.2       1 UNK         0.5006 
     36 O          28.5667   21.6533    1.6341 O.2       1 UNK        -0.5103 
     37 C          27.9285   27.7983    2.3306 C.2       5 UNK         0.5055 
     38 O          28.0880   26.6590    2.7768 O.2       5 UNK        -0.5220 
     39 N          27.3869   28.8072    3.0272 N.am      6 UNK        -0.4450 
     40 CA         26.8173   28.7389    4.3773 C.3       6 UNK         0.0367 
     41 CB         26.2170   30.1090    4.7308 C.3       6 UNK        -0.1929 
     42 C          27.7911   28.2863    5.4805 C.2       6 UNK         0.5070 
     43 O          27.3373   27.7864    6.5097 O.2       6 UNK        -0.5237 
     44 N          29.0969   28.4538    5.2544 N.am      7 UNK        -0.4739 
     45 CA         30.1705   27.9692    6.1116 C.3       7 UNK         0.0276 
     46 CB         30.4009   28.9412    7.2837 C.3       7 UNK        -0.1927 
     47 C          31.4329   27.8355    5.2598 C.2       7 UNK         0.5013 
     48 O          31.6054   28.5993    4.3042 O.2       7 UNK        -0.5193 
     49 N          32.3229   26.9188    5.6590 N.am      8 UNK        -0.4253 
     50 CA         33.6137   26.6659    5.0080 C.3       8 UNK         0.0242 
     51 CB         34.2413   25.3992    5.6134 C.3       8 UNK        -0.2000 
     52 C          34.6028   27.8431    5.0894 C.2       8 UNK         0.4948 
     53 O          35.5052   27.9264    4.2581 O.2       8 UNK        -0.5275 
     54 N          34.4172   28.7257    6.0799 N.am      9 UNK        -0.4246 
     55 CA         35.1563   29.9804    6.2244 C.3       9 UNK         0.0261 
     56 CB         35.2366   30.3385    7.7182 C.3       9 UNK        -0.1959 
     57 C          34.5238   31.1404    5.4316 C.2       9 UNK         0.5033 
     58 O          35.1983   32.1508    5.2269 O.2       9 UNK        -0.5390 
     59 N          33.2509   31.0042    5.0304 N.am      10 UNK        -0.4215 
     60 CA         32.4937   32.0327    4.3163 C.3       10 UNK         0.0240 
     61 CB         31.0289   32.0283    4.7893 C.3       10 UNK        -0.1982 
     62 C          32.5760   31.8339    2.7984 C.2       10 UNK         0.4970 
     63 O          32.8347   32.8031    2.0843 O.2       10 UNK        -0.4916 
     64 N          32.3449   30.5944    2.3395 N.am      11 UNK        -0.4279 
     65 CA         32.3499   30.1836    0.9217 C.3       11 UNK         0.1003 
     66 C          31.2378   30.8452    0.0471 C.2       11 UNK         0.5709 
     67 N          30.1912   31.4190    0.6308 N.am      11 UNK        -0.7358 
     68 O          31.3088   30.8248   -1.1791 O.2       11 UNK        -0.4999 
     69 C69        33.7582   30.2896    0.2652 C.3       12 UNK        -0.0954 
     70 S70        35.0362   29.3486    1.1641 S.3       12 UNK        -0.2268 
     71 C71        35.3225   27.9319    0.0583 C.3       12 UNK         0.0203 
     72 H72        26.2972   25.6639    4.8082 H         1 UNK         0.0888 
     73 H73        25.3145   24.3775    5.4986 H         1 UNK         0.0888 
     74 H74        26.6430   25.0676    6.4378 H         1 UNK         0.0888 
     75 H75        28.3020   25.1560    3.8295 H         1 UNK         0.3017 
     76 H76        29.3479   22.4010    3.9051 H         1 UNK         0.0873 
     77 H77        30.3799   24.8108    2.3234 H         1 UNK         0.0745 
     78 H78        30.9073   24.4021    3.9324 H         1 UNK         0.0745 
     79 H79        34.0728   23.2128    1.9420 H         1 UNK         0.0705 
     80 H80        33.4472   24.3098    3.1412 H         1 UNK         0.0705 
     81 H81        34.9753   25.8739    1.8009 H         1 UNK         0.1334 
     82 H82        33.1397   27.7628   -1.5811 H         1 UNK         0.1417 
     83 H83        31.3433   24.2875    0.1392 H         1 UNK         0.1562 
     84 H84        30.4047   25.2026   -1.8344 H         1 UNK         0.0748 
     85 H85        31.3695   26.2859   -2.8045 H         1 UNK         0.0748 
     86 H86        30.1437   26.9250    0.9135 H         1 UNK         0.0940 
     87 H87        28.7708   26.0892    0.2239 H         1 UNK         0.0940 
     88 H88        28.9031   29.0628    0.9216 H         1 UNK         0.0703 
     89 H89        26.9133   27.6223   -0.6018 H         1 UNK         0.3081 
     90 H90        24.3633   30.0510   -0.3066 H         1 UNK         0.0719 
     91 H91        26.1335   29.5222   -2.7500 H         1 UNK         0.0809 
     92 H92        24.4644   30.0900   -2.8007 H         1 UNK         0.0809 
     93 H93        25.7162   31.0872   -2.0773 H         1 UNK         0.0809 
     94 H94        23.5978   28.0018   -0.4043 H         1 UNK         0.2990 
     95 H95        23.4136   25.8407   -0.5200 H         1 UNK         0.0690 
     96 H96        23.9982   25.1754   -3.4621 H         1 UNK         0.0788 
     97 H97        22.6412   26.1312   -2.8830 H         1 UNK         0.0788 
     98 H98        22.7482   24.4289   -2.4654 H         1 UNK         0.0788 
     99 H99        25.1797   23.9047   -1.6977 H         1 UNK         0.2993 
    100 H100       26.3315   22.5206    0.3159 H         1 UNK         0.0949 
    101 H101       28.5782   22.7503   -0.9410 H         1 UNK         0.0767 
    102 H102       27.1800   23.1045   -1.9306 H         1 UNK         0.0767 
    103 H103       28.1487   24.4218   -1.2939 H         1 UNK         0.0767 
    104 H104       27.5249   24.6336    1.8062 H         1 UNK         0.3013 
    105 H105       27.2394   29.6757    2.5214 H         1 UNK         0.3121 
    106 H106       26.0050   28.0107    4.3459 H         1 UNK         0.0774 
    107 H107       25.7482   30.0887    5.7158 H         1 UNK         0.0815 
    108 H108       26.9788   30.8895    4.7484 H         1 UNK         0.0815 
    109 H109       25.4493   30.4040    4.0151 H         1 UNK         0.0815 
    110 H110       29.4048   28.8382    4.3708 H         1 UNK         0.2987 
    111 H111       29.9010   26.9828    6.4964 H         1 UNK         0.0949 
    112 H112       30.6715   29.9384    6.9364 H         1 UNK         0.0806 
    113 H113       29.5074   29.0369    7.9009 H         1 UNK         0.0806 
    114 H114       31.2026   28.5915    7.9351 H         1 UNK         0.0806 
    115 H115       32.1079   26.3483    6.4647 H         1 UNK         0.3010 
    116 H116       33.4161   26.4927    3.9486 H         1 UNK         0.0829 
    117 H117       35.1668   25.1388    5.0976 H         1 UNK         0.0813 
    118 H118       34.4844   25.5341    6.6682 H         1 UNK         0.0813 
    119 H119       33.5734   24.5415    5.5323 H         1 UNK         0.0813 
    120 H120       33.6848   28.5466    6.7508 H         1 UNK         0.3038 
    121 H121       36.1746   29.8456    5.8527 H         1 UNK         0.0769 
    122 H122       35.8104   31.2539    7.8696 H         1 UNK         0.0811 
    123 H123       35.7304   29.5517    8.2888 H         1 UNK         0.0811 
    124 H124       34.2482   30.4990    8.1508 H         1 UNK         0.0811 
    125 H125       32.7947   30.1089    5.1477 H         1 UNK         0.3204 
    126 H126       32.9076   33.0172    4.5455 H         1 UNK         0.0748 
    127 H127       30.4531   32.8009    4.2778 H         1 UNK         0.0771 
    128 H128       30.5351   31.0756    4.5985 H         1 UNK         0.0771 
    129 H129       30.9601   32.2323    5.8578 H         1 UNK         0.0771 
    130 H130       32.1247   29.8578    3.0046 H         1 UNK         0.2980 
    131 H131       32.0830   29.1264    0.9351 H         1 UNK         0.0545 
    132 H132       30.1273   31.4707    1.6331 H         1 UNK         0.3459 
    133 H133       29.4757   31.8343    0.0560 H         1 UNK         0.3459 
    134 H134       33.7318   29.9417   -0.7680 H         1 UNK         0.0616 
    135 H135       34.0789   31.3308    0.2150 H         1 UNK         0.0616 
    136 H136       36.2517   27.4444    0.3571 H         1 UNK         0.0634 
    137 H137       35.4836   28.2866   -0.9609 H         1 UNK         0.0634 
@<TRIPOS>BOND
     1    1    2 1    
     2    1   72 1    
     3    1   73 1    
     4    1   74 1    
     5    2    3 2    
     6    2    4 am   BACKBONE|DICT|INTERRES
     7    4    5 1    
     8    4   75 1    
     9    5    6 1    
    10    5   35 1    
    11    5   76 1    
    12    6    7 1    
    13    6   77 1    
    14    6   78 1    
    15    7    8 1    
    16    8    9 1    
    17    8   79 1    
    18    8   80 1    
    19    9   10 ar   
    20    9   14 ar   
    21   10   11 ar   
    22   10   81 1    
    23   11   12 ar   
    24   11   71 1    
    25   12   13 ar   
    26   12   82 1    
    27   13   14 ar   
    28   13   15 1    
    29   14   83 1    
    30   15   16 1    
    31   15   84 1    
    32   15   85 1    
    33   16   17 1    
    34   17   18 1    
    35   17   86 1    
    36   17   87 1    
    37   18   19 1    
    38   18   37 1    
    39   18   88 1    
    40   19   20 am   BACKBONE|DICT|INTERRES
    41   19   89 1    
    42   20   21 2    
    43   20   22 1    
    44   22   23 1    
    45   22   24 1    
    46   22   90 1    
    47   23   91 1    
    48   23   92 1    
    49   23   93 1    
    50   24   25 am   BACKBONE|DICT|INTERRES
    51   24   94 1    
    52   25   26 2    
    53   25   27 1    
    54   27   28 1    
    55   27   29 1    
    56   27   95 1    
    57   28   96 1    
    58   28   97 1    
    59   28   98 1    
    60   29   30 am   BACKBONE|DICT|INTERRES
    61   29   99 1    
    62   30   31 2    
    63   30   32 1    
    64   32   33 1    
    65   32   34 1    
    66   32  100 1    
    67   33  101 1    
    68   33  102 1    
    69   33  103 1    
    70   34   35 am   BACKBONE|DICT|INTERRES
    71   34  104 1    
    72   35   36 2    
    73   37   38 2    
    74   37   39 am   BACKBONE|DICT|INTERRES
    75   39   40 1    
    76   39  105 1    
    77   40   41 1    
    78   40   42 1    
    79   40  106 1    
    80   41  107 1    
    81   41  108 1    
    82   41  109 1    
    83   42   43 2    
    84   42   44 am   BACKBONE|DICT|INTERRES
    85   44   45 1    
    86   44  110 1    
    87   45   46 1    
    88   45   47 1    
    89   45  111 1    
    90   46  112 1    
    91   46  113 1    
    92   46  114 1    
    93   47   48 2    
    94   47   49 am   BACKBONE|DICT|INTERRES
    95   49   50 1    
    96   49  115 1    
    97   50   51 1    
    98   50   52 1    
    99   50  116 1    
   100   51  117 1    
   101   51  118 1    
   102   51  119 1    
   103   52   53 2    
   104   52   54 am   BACKBONE|DICT|INTERRES
   105   54   55 1    
   106   54  120 1    
   107   55   56 1    
   108   55   57 1    
   109   55  121 1    
   110   56  122 1    
   111   56  123 1    
   112   56  124 1    
   113   57   58 2    
   114   57   59 am   BACKBONE|DICT|INTERRES
   115   59   60 1    
   116   59  125 1    
   117   60   61 1    
   118   60   62 1    
   119   60  126 1    
   120   61  127 1    
   121   61  128 1    
   122   61  129 1    
   123   62   63 2    
   124   62   64 am   BACKBONE|DICT|INTERRES
   125   64   65 1    
   126   64  130 1    
   127   65   66 1    
   128   65   69 1    
   129   65  131 1    
   130   66   67 am   BACKBONE|DICT|INTERRES
   131   66   68 2    
   132   67  132 1    
   133   67  133 1    
   134   69   70 1    
   135   69  134 1    
   136   69  135 1    
   137   70   71 1    
   138   71  136 1    
   139   71  137 1    
@<TRIPOS>SUBSTRUCTURE
     1 UNK         1 GROUP             0       ****    0 ROOT    
