@<TRIPOS>MOLECULE
3R136
137   139    1
SMALL
USER_CHARGES


@<TRIPOS>ATOM
      1 CA         28.6108   20.8825   -1.6446 C.3       0 UNK        -0.1979 
      2 C          28.4679   22.3004   -2.1781 C.2       0 UNK         0.4864 
      3 O          28.2213   22.4845   -3.3713 O.2       0 UNK        -0.5359 
      4 N          28.6279   23.2952   -1.2988 N.am      1 UNK        -0.4318 
      5 CA         28.4684   24.7238   -1.5828 C.3       1 UNK         0.0824 
      6 C6         29.5059   25.5582   -0.7855 C.3       12 UNK        -0.0944 
      7 S7         31.1906   25.3450   -1.4549 S.3       12 UNK        -0.2672 
      8 C8         31.8925   24.0099   -0.4229 C.3       12 UNK         0.0333 
      9 C9         32.2392   24.4203    1.0061 C.ar      12 UNK        -0.0807 
     10 C10        32.7712   25.6810    1.2973 C.ar      12 UNK        -0.0894 
     11 C11        33.0986   26.0328    2.6097 C.ar      12 UNK        -0.0804 
     12 C12        32.9001   25.1105    3.6411 C.ar      12 UNK        -0.0824 
     13 C13        32.3851   23.8398    3.3638 C.ar      12 UNK        -0.0762 
     14 C14        32.0653   23.5005    2.0449 C.ar      12 UNK        -0.0782 
     15 C15        32.1681   22.8333    4.4874 C.3       12 UNK         0.0230 
     16 S16        30.4118   22.3856    4.6931 S.3       12 UNK        -0.2608 
     17 C17        29.6615   24.0055    5.0662 C.3       12 UNK        -0.0989 
     18 CA         29.0425   24.6814    3.8127 C.3       5 UNK         0.0716 
     19 N          27.8782   23.9664    3.2981 N.am      5 UNK        -0.4135 
     20 C          27.8504   23.1795    2.2183 C.2       4 UNK         0.5031 
     21 O          28.8254   22.9367    1.5069 O.2       4 UNK        -0.5229 
     22 CA         26.4848   22.5982    1.8212 C.3       4 UNK         0.0329 
     23 CB         25.9908   21.5413    2.8288 C.3       4 UNK        -0.2001 
     24 N          25.4820   23.6373    1.5565 N.am      4 UNK        -0.4303 
     25 C          24.8993   24.4825    2.4204 C.2       3 UNK         0.5044 
     26 O          25.1025   24.4765    3.6359 O.2       3 UNK        -0.5152 
     27 CA         24.0047   25.5569    1.7905 C.3       3 UNK         0.0319 
     28 CB         23.4206   26.5535    2.8099 C.3       3 UNK        -0.2001 
     29 N          24.7877   26.2592    0.7744 N.am      3 UNK        -0.4354 
     30 C          24.3371   26.6025   -0.4361 C.2       2 UNK         0.4964 
     31 O          23.1562   26.5240   -0.7777 O.2       2 UNK        -0.5047 
     32 CA         25.3838   27.0792   -1.4604 C.3       2 UNK         0.0288 
     33 CB         25.5152   28.6107   -1.4149 C.3       2 UNK        -0.2113 
     34 N          26.7201   26.4661   -1.3552 N.am      2 UNK        -0.4145 
     35 C          26.9915   25.1496   -1.3764 C.2       1 UNK         0.5006 
     36 O          26.1140   24.2855   -1.2808 O.2       1 UNK        -0.5103 
     37 C          28.6176   26.1329    4.0781 C.2       5 UNK         0.5055 
     38 O          28.5059   26.5453    5.2341 O.2       5 UNK        -0.5220 
     39 N          28.3717   26.8789    2.9970 N.am      6 UNK        -0.4450 
     40 CA         28.1083   28.3126    3.0101 C.3       6 UNK         0.0367 
     41 CB         26.6158   28.5945    3.2456 C.3       6 UNK        -0.1929 
     42 C          28.5638   28.8636    1.6604 C.2       6 UNK         0.5070 
     43 O          28.1913   28.2870    0.6371 O.2       6 UNK        -0.5237 
     44 N          29.3373   29.9515    1.6748 N.am      7 UNK        -0.4739 
     45 CA         29.8118   30.6564    0.4858 C.3       7 UNK         0.0276 
     46 CB         30.8221   29.8177   -0.3310 C.3       7 UNK        -0.1927 
     47 C          30.3726   32.0213    0.8983 C.2       7 UNK         0.5013 
     48 O          29.6617   33.0206    0.7830 O.2       7 UNK        -0.5193 
     49 N          31.6268   32.0481    1.3651 N.am      8 UNK        -0.4253 
     50 CA         32.3676   33.2547    1.7291 C.3       8 UNK         0.0242 
     51 CB         32.8495   33.9782    0.4545 C.3       8 UNK        -0.2000 
     52 C          33.5538   32.8818    2.6272 C.2       8 UNK         0.4948 
     53 O          33.8755   31.6976    2.7600 O.2       8 UNK        -0.5275 
     54 N          34.1868   33.9060    3.2189 N.am      9 UNK        -0.4246 
     55 CA         35.3536   33.8283    4.1064 C.3       9 UNK         0.0261 
     56 CB         36.6150   33.4204    3.3091 C.3       9 UNK        -0.1959 
     57 C          35.0654   32.9452    5.3349 C.2       9 UNK         0.5033 
     58 O          34.2117   33.3133    6.1447 O.2       9 UNK        -0.5390 
     59 N          35.7374   31.7893    5.4335 N.am      10 UNK        -0.4215 
     60 CA         35.5708   30.7837    6.4897 C.3       10 UNK         0.0240 
     61 CB         36.6056   29.6653    6.2823 C.3       10 UNK        -0.1982 
     62 C          34.1529   30.1871    6.5920 C.2       10 UNK         0.4970 
     63 O          33.8002   29.6745    7.6550 O.2       10 UNK        -0.4916 
     64 N          33.3728   30.2748    5.5097 N.am      11 UNK        -0.4279 
     65 CA         31.9593   29.8891    5.4385 C.3       11 UNK         0.1003 
     66 C          31.0572   31.0722    4.9773 C.2       11 UNK         0.5709 
     67 N          31.4349   32.3205    5.2312 N.am      11 UNK        -0.7358 
     68 O          29.9993   30.8705    4.3868 O.2       11 UNK        -0.4999 
     69 C69        31.7679   28.5700    4.6425 C.3       12 UNK        -0.0954 
     70 S70        32.3651   28.6694    2.9227 S.3       12 UNK        -0.2268 
     71 C71        33.6737   27.4108    2.8963 C.3       12 UNK         0.0203 
     72 H72        29.3981   20.3558   -2.1832 H         1 UNK         0.0888 
     73 H73        28.8603   20.8710   -0.5833 H         1 UNK         0.0888 
     74 H74        27.6782   20.3354   -1.7797 H         1 UNK         0.0888 
     75 H75        28.7958   23.0735   -0.3192 H         1 UNK         0.3017 
     76 H76        28.6609   24.8930   -2.6445 H         1 UNK         0.0873 
     77 H77        29.3033   26.6238   -0.8719 H         1 UNK         0.0745 
     78 H78        29.4868   25.3222    0.2795 H         1 UNK         0.0745 
     79 H79        31.2042   23.1645   -0.4204 H         1 UNK         0.0705 
     80 H80        32.8059   23.6558   -0.9018 H         1 UNK         0.0705 
     81 H81        32.9296   26.3977    0.5033 H         1 UNK         0.1334 
     82 H82        33.1500   25.3821    4.6576 H         1 UNK         0.1417 
     83 H83        31.6578   22.5205    1.8341 H         1 UNK         0.1562 
     84 H84        32.5508   23.2158    5.4350 H         1 UNK         0.0748 
     85 H85        32.7387   21.9295    4.2698 H         1 UNK         0.0748 
     86 H86        30.4237   24.6465    5.5139 H         1 UNK         0.0940 
     87 H87        28.9013   23.8624    5.8363 H         1 UNK         0.0940 
     88 H88        29.8067   24.7375    3.0370 H         1 UNK         0.0703 
     89 H89        26.9920   24.1584    3.7596 H         1 UNK         0.3081 
     90 H90        26.6280   22.0873    0.8674 H         1 UNK         0.0719 
     91 H91        25.8327   21.9558    3.8246 H         1 UNK         0.0809 
     92 H92        25.0535   21.0917    2.5014 H         1 UNK         0.0809 
     93 H93        26.7190   20.7353    2.9294 H         1 UNK         0.0809 
     94 H94        25.3028   23.7925    0.5684 H         1 UNK         0.2990 
     95 H95        23.1737   25.0276    1.3189 H         1 UNK         0.0690 
     96 H96        22.8250   27.3222    2.3175 H         1 UNK         0.0788 
     97 H97        24.1978   27.0490    3.3895 H         1 UNK         0.0788 
     98 H98        22.7684   26.0418    3.5186 H         1 UNK         0.0788 
     99 H99        25.7759   26.3615    0.9585 H         1 UNK         0.2993 
    100 H100       24.9989   26.8068   -2.4454 H         1 UNK         0.0949 
    101 H101       24.5494   29.0896   -1.5823 H         1 UNK         0.0767 
    102 H102       25.8835   28.9561   -0.4485 H         1 UNK         0.0767 
    103 H103       26.1947   28.9773   -2.1845 H         1 UNK         0.0767 
    104 H104       27.4935   27.1181   -1.3355 H         1 UNK         0.3013 
    105 H105       28.5071   26.4912    2.0730 H         1 UNK         0.3121 
    106 H106       28.6824   28.7787    3.8093 H         1 UNK         0.0774 
    107 H107       26.0027   28.2220    2.4259 H         1 UNK         0.0815 
    108 H108       26.4347   29.6671    3.3231 H         1 UNK         0.0815 
    109 H109       26.2648   28.1384    4.1712 H         1 UNK         0.0815 
    110 H110       29.5874   30.3657    2.5714 H         1 UNK         0.2987 
    111 H111       28.9476   30.8498   -0.1538 H         1 UNK         0.0949 
    112 H112       31.6639   29.4770    0.2689 H         1 UNK         0.0806 
    113 H113       30.3524   28.9354   -0.7647 H         1 UNK         0.0806 
    114 H114       31.2275   30.3985   -1.1604 H         1 UNK         0.0806 
    115 H115       32.1353   31.1840    1.5151 H         1 UNK         0.3010 
    116 H116       31.7091   33.9126    2.3003 H         1 UNK         0.0829 
    117 H117       33.4068   34.8841    0.6952 H         1 UNK         0.0813 
    118 H118       33.5038   33.3416   -0.1427 H         1 UNK         0.0813 
    119 H119       32.0128   34.2797   -0.1757 H         1 UNK         0.0813 
    120 H120       33.8196   34.8364    3.0743 H         1 UNK         0.3038 
    121 H121       35.5207   34.8354    4.4917 H         1 UNK         0.0769 
    122 H122       36.5167   32.4390    2.8437 H         1 UNK         0.0811 
    123 H123       37.4990   33.4024    3.9482 H         1 UNK         0.0811 
    124 H124       36.8169   34.1368    2.5127 H         1 UNK         0.0811 
    125 H125       36.3892   31.5636    4.6960 H         1 UNK         0.3204 
    126 H126       35.7809   31.2744    7.4422 H         1 UNK         0.0748 
    127 H127       36.5337   28.9147    7.0709 H         1 UNK         0.0771 
    128 H128       36.4593   29.1523    5.3306 H         1 UNK         0.0771 
    129 H129       37.6235   30.0554    6.3027 H         1 UNK         0.0771 
    130 H130       33.7330   30.7168    4.6704 H         1 UNK         0.2980 
    131 H131       31.5989   29.6852    6.4479 H         1 UNK         0.0545 
    132 H132       30.8322   33.0763    4.9503 H         1 UNK         0.3459 
    133 H133       32.3066   32.5197    5.7075 H         1 UNK         0.3459 
    134 H134       32.2847   27.7611    5.1597 H         1 UNK         0.0616 
    135 H135       30.7204   28.2751    4.6328 H         1 UNK         0.0616 
    136 H136       34.2288   27.4239    3.8355 H         1 UNK         0.0634 
    137 H137       34.3905   27.6727    2.1168 H         1 UNK         0.0634 
@<TRIPOS>BOND
     1    1    2 1    
     2    1   72 1    
     3    1   73 1    
     4    1   74 1    
     5    2    3 2    
     6    2    4 am   BACKBONE|DICT|INTERRES
     7    4    5 1    
     8    4   75 1    
     9    5    6 1    
    10    5   35 1    
    11    5   76 1    
    12    6    7 1    
    13    6   77 1    
    14    6   78 1    
    15    7    8 1    
    16    8    9 1    
    17    8   79 1    
    18    8   80 1    
    19    9   10 ar   
    20    9   14 ar   
    21   10   11 ar   
    22   10   81 1    
    23   11   12 ar   
    24   11   71 1    
    25   12   13 ar   
    26   12   82 1    
    27   13   14 ar   
    28   13   15 1    
    29   14   83 1    
    30   15   16 1    
    31   15   84 1    
    32   15   85 1    
    33   16   17 1    
    34   17   18 1    
    35   17   86 1    
    36   17   87 1    
    37   18   19 1    
    38   18   37 1    
    39   18   88 1    
    40   19   20 am   BACKBONE|DICT|INTERRES
    41   19   89 1    
    42   20   21 2    
    43   20   22 1    
    44   22   23 1    
    45   22   24 1    
    46   22   90 1    
    47   23   91 1    
    48   23   92 1    
    49   23   93 1    
    50   24   25 am   BACKBONE|DICT|INTERRES
    51   24   94 1    
    52   25   26 2    
    53   25   27 1    
    54   27   28 1    
    55   27   29 1    
    56   27   95 1    
    57   28   96 1    
    58   28   97 1    
    59   28   98 1    
    60   29   30 am   BACKBONE|DICT|INTERRES
    61   29   99 1    
    62   30   31 2    
    63   30   32 1    
    64   32   33 1    
    65   32   34 1    
    66   32  100 1    
    67   33  101 1    
    68   33  102 1    
    69   33  103 1    
    70   34   35 am   BACKBONE|DICT|INTERRES
    71   34  104 1    
    72   35   36 2    
    73   37   38 2    
    74   37   39 am   BACKBONE|DICT|INTERRES
    75   39   40 1    
    76   39  105 1    
    77   40   41 1    
    78   40   42 1    
    79   40  106 1    
    80   41  107 1    
    81   41  108 1    
    82   41  109 1    
    83   42   43 2    
    84   42   44 am   BACKBONE|DICT|INTERRES
    85   44   45 1    
    86   44  110 1    
    87   45   46 1    
    88   45   47 1    
    89   45  111 1    
    90   46  112 1    
    91   46  113 1    
    92   46  114 1    
    93   47   48 2    
    94   47   49 am   BACKBONE|DICT|INTERRES
    95   49   50 1    
    96   49  115 1    
    97   50   51 1    
    98   50   52 1    
    99   50  116 1    
   100   51  117 1    
   101   51  118 1    
   102   51  119 1    
   103   52   53 2    
   104   52   54 am   BACKBONE|DICT|INTERRES
   105   54   55 1    
   106   54  120 1    
   107   55   56 1    
   108   55   57 1    
   109   55  121 1    
   110   56  122 1    
   111   56  123 1    
   112   56  124 1    
   113   57   58 2    
   114   57   59 am   BACKBONE|DICT|INTERRES
   115   59   60 1    
   116   59  125 1    
   117   60   61 1    
   118   60   62 1    
   119   60  126 1    
   120   61  127 1    
   121   61  128 1    
   122   61  129 1    
   123   62   63 2    
   124   62   64 am   BACKBONE|DICT|INTERRES
   125   64   65 1    
   126   64  130 1    
   127   65   66 1    
   128   65   69 1    
   129   65  131 1    
   130   66   67 am   BACKBONE|DICT|INTERRES
   131   66   68 2    
   132   67  132 1    
   133   67  133 1    
   134   69   70 1    
   135   69  134 1    
   136   69  135 1    
   137   70   71 1    
   138   71  136 1    
   139   71  137 1    
@<TRIPOS>SUBSTRUCTURE
     1 UNK         1 GROUP             0       ****    0 ROOT    
