@<TRIPOS>MOLECULE
3R136
137   139    1
SMALL
USER_CHARGES


@<TRIPOS>ATOM
      1 CA         28.2204   21.7451   -3.5663 C.3       0 UNK        -0.1979 
      2 C          28.0071   22.4280   -2.2244 C.2       0 UNK         0.4864 
      3 O          27.0276   23.1574   -2.0575 O.2       0 UNK        -0.5359 
      4 N          28.9122   22.2023   -1.2621 N.am      1 UNK        -0.4318 
      5 CA         28.8271   22.7676    0.0870 C.3       1 UNK         0.0824 
      6 C6         30.1185   22.5604    0.9157 C.3       12 UNK        -0.0944 
      7 S7         31.5948   23.3458    0.1814 S.3       12 UNK        -0.2672 
      8 C8         31.1973   25.1276    0.2172 C.3       12 UNK         0.0333 
      9 C9         31.0853   25.6902    1.6284 C.ar      12 UNK        -0.0807 
     10 C10        32.2054   26.2406    2.2557 C.ar      12 UNK        -0.0894 
     11 C11        32.0976   26.8212    3.5227 C.ar      12 UNK        -0.0804 
     12 C12        30.8558   26.8402    4.1669 C.ar      12 UNK        -0.0824 
     13 C13        29.7268   26.2792    3.5602 C.ar      12 UNK        -0.0762 
     14 C14        29.8551   25.7032    2.2915 C.ar      12 UNK        -0.0782 
     15 C15        28.3925   26.2723    4.3073 C.3       12 UNK         0.0230 
     16 S16        26.9255   26.5666    3.2566 S.3       12 UNK        -0.2608 
     17 C17        27.2214   28.2628    2.6544 C.3       12 UNK        -0.0989 
     18 CA         27.6424   28.3214    1.1591 C.3       5 UNK         0.0716 
     19 N          26.5774   27.9349    0.2294 N.am      5 UNK        -0.4135 
     20 C          26.4110   26.7092   -0.2772 C.2       4 UNK         0.5031 
     21 O          27.1082   25.7389    0.0308 O.2       4 UNK        -0.5229 
     22 CA         25.3004   26.5429   -1.3243 C.3       4 UNK         0.0329 
     23 CB         25.8018   26.9554   -2.7180 C.3       4 UNK        -0.2001 
     24 N          24.9137   25.1371   -1.3532 N.am      4 UNK        -0.4303 
     25 C          23.6652   24.6580   -1.3001 C.2       3 UNK         0.5044 
     26 O          22.6528   25.3481   -1.4250 O.2       3 UNK        -0.5152 
     27 CA         23.5290   23.1582   -0.9802 C.3       3 UNK         0.0319 
     28 CB         23.6885   22.2938   -2.2414 C.3       3 UNK        -0.2001 
     29 N          24.5155   22.7721    0.0343 N.am      3 UNK        -0.4354 
     30 C          24.3704   23.0406    1.3416 C.2       2 UNK         0.4964 
     31 O          23.3022   23.3910    1.8447 O.2       2 UNK        -0.5047 
     32 CA         25.6170   22.9891    2.2411 C.3       2 UNK         0.0288 
     33 CB         25.6099   21.7692    3.1853 C.3       2 UNK        -0.2113 
     34 N          26.8779   23.1520    1.5041 N.am      2 UNK        -0.4145 
     35 C          27.5937   22.2339    0.8405 C.2       1 UNK         0.5006 
     36 O          27.3200   21.0330    0.7854 O.2       1 UNK        -0.5103 
     37 C          28.1652   29.7043    0.7374 C.2       5 UNK         0.5055 
     38 O          28.1624   30.6425    1.5344 O.2       5 UNK        -0.5220 
     39 N          28.6055   29.8164   -0.5239 N.am      6 UNK        -0.4450 
     40 CA         29.1858   31.0416   -1.0883 C.3       6 UNK         0.0367 
     41 CB         29.3123   30.8859   -2.6124 C.3       6 UNK        -0.1929 
     42 C          30.5479   31.4165   -0.4715 C.2       6 UNK         0.5070 
     43 O          30.9066   32.5937   -0.4651 O.2       6 UNK        -0.5237 
     44 N          31.2735   30.4137    0.0403 N.am      7 UNK        -0.4739 
     45 CA         32.5959   30.5467    0.6552 C.3       7 UNK         0.0276 
     46 CB         33.4743   29.3760    0.1763 C.3       7 UNK        -0.1927 
     47 C          32.5428   30.6072    2.1937 C.2       7 UNK         0.5013 
     48 O          33.5880   30.4361    2.8219 O.2       7 UNK        -0.5193 
     49 N          31.3549   30.8431    2.7800 N.am      8 UNK        -0.4253 
     50 CA         31.0569   30.8039    4.2231 C.3       8 UNK         0.0242 
     51 CB         29.6453   31.3536    4.4801 C.3       8 UNK        -0.2000 
     52 C          32.0600   31.5202    5.1434 C.2       8 UNK         0.4948 
     53 O          32.3384   31.0172    6.2323 O.2       8 UNK        -0.5275 
     54 N          32.6237   32.6429    4.6768 N.am      9 UNK        -0.4246 
     55 CA         33.6613   33.4197    5.3624 C.3       9 UNK         0.0261 
     56 CB         33.9816   34.6727    4.5314 C.3       9 UNK        -0.1959 
     57 C          34.9537   32.6366    5.6721 C.2       9 UNK         0.5033 
     58 O          35.6587   33.0065    6.6121 O.2       9 UNK        -0.5390 
     59 N          35.2416   31.5740    4.9053 N.am      10 UNK        -0.4215 
     60 CA         36.3692   30.6711    5.1456 C.3       10 UNK         0.0240 
     61 CB         36.7322   29.9559    3.8334 C.3       10 UNK        -0.1982 
     62 C          36.0953   29.6407    6.2576 C.2       10 UNK         0.4970 
     63 O          37.0561   29.0812    6.7881 O.2       10 UNK        -0.4916 
     64 N          34.8182   29.3929    6.5775 N.am      11 UNK        -0.4279 
     65 CA         34.3745   28.4062    7.5752 C.3       11 UNK         0.1003 
     66 C          33.8656   29.0759    8.8785 C.2       11 UNK         0.5709 
     67 N          33.2375   30.2437    8.8166 N.am      11 UNK        -0.7358 
     68 O          34.0554   28.5330    9.9643 O.2       11 UNK        -0.4999 
     69 C69        33.2993   27.4489    6.9960 C.3       12 UNK        -0.0954 
     70 S70        33.9274   26.4718    5.5866 S.3       12 UNK        -0.2268 
     71 C71        33.3218   27.4470    4.1753 C.3       12 UNK         0.0203 
     72 H72        28.3049   22.4912   -4.3559 H         1 UNK         0.0888 
     73 H73        29.1244   21.1366   -3.5747 H         1 UNK         0.0888 
     74 H74        27.3731   21.0997   -3.7957 H         1 UNK         0.0888 
     75 H75        29.6945   21.5882   -1.4359 H         1 UNK         0.3017 
     76 H76        28.6847   23.8364   -0.0481 H         1 UNK         0.0873 
     77 H77        30.3259   21.4943    1.0261 H         1 UNK         0.0745 
     78 H78        29.9995   22.9427    1.9309 H         1 UNK         0.0745 
     79 H79        31.9853   25.6579   -0.3198 H         1 UNK         0.0705 
     80 H80        30.2855   25.3277   -0.3458 H         1 UNK         0.0705 
     81 H81        33.1607   26.2287    1.7490 H         1 UNK         0.1334 
     82 H82        30.7722   27.2829    5.1493 H         1 UNK         0.1417 
     83 H83        28.9880   25.2775    1.8113 H         1 UNK         0.1562 
     84 H84        28.3975   27.0154    5.1064 H         1 UNK         0.0748 
     85 H85        28.2781   25.3022    4.7924 H         1 UNK         0.0748 
     86 H86        27.9903   28.7094    3.2860 H         1 UNK         0.0940 
     87 H87        26.3182   28.8528    2.8190 H         1 UNK         0.0940 
     88 H88        28.4935   27.6539    1.0221 H         1 UNK         0.0703 
     89 H89        25.9729   28.6839   -0.0792 H         1 UNK         0.3081 
     90 H90        24.4515   27.1664   -1.0357 H         1 UNK         0.0719 
     91 H91        25.0237   26.8254   -3.4704 H         1 UNK         0.0809 
     92 H92        26.6646   26.3622   -3.0254 H         1 UNK         0.0809 
     93 H93        26.0993   28.0045   -2.7377 H         1 UNK         0.0809 
     94 H94        25.6936   24.4893   -1.2729 H         1 UNK         0.2990 
     95 H95        22.5254   22.9860   -0.5851 H         1 UNK         0.0690 
     96 H96        23.5980   21.2328   -2.0084 H         1 UNK         0.0788 
     97 H97        24.6497   22.4488   -2.7299 H         1 UNK         0.0788 
     98 H98        22.9144   22.5324   -2.9717 H         1 UNK         0.0788 
     99 H99        25.4241   22.4835   -0.3033 H         1 UNK         0.2993 
    100 H100       25.5535   23.8746    2.8753 H         1 UNK         0.0949 
    101 H101       26.5020   21.7442    3.8111 H         1 UNK         0.0767 
    102 H102       24.7470   21.8051    3.8515 H         1 UNK         0.0767 
    103 H103       25.5502   20.8272    2.6400 H         1 UNK         0.0767 
    104 H104       27.1416   24.1229    1.3637 H         1 UNK         0.3013 
    105 H105       28.5651   29.0086   -1.1291 H         1 UNK         0.3121 
    106 H106       28.4986   31.8661   -0.8854 H         1 UNK         0.0774 
    107 H107       29.7142   31.7939   -3.0645 H         1 UNK         0.0815 
    108 H108       29.9792   30.0661   -2.8821 H         1 UNK         0.0815 
    109 H109       28.3431   30.6988   -3.0751 H         1 UNK         0.0815 
    110 H110       30.8911   29.4803   -0.0023 H         1 UNK         0.2987 
    111 H111       33.0668   31.4746    0.3234 H         1 UNK         0.0949 
    112 H112       33.0792   28.4153    0.5059 H         1 UNK         0.0806 
    113 H113       33.5460   29.3538   -0.9112 H         1 UNK         0.0806 
    114 H114       34.4917   29.4599    0.5613 H         1 UNK         0.0806 
    115 H115       30.5598   30.9844    2.1713 H         1 UNK         0.3010 
    116 H116       31.0616   29.7532    4.5144 H         1 UNK         0.0829 
    117 H117       28.8832   30.7265    4.0231 H         1 UNK         0.0813 
    118 H118       29.4234   31.3884    5.5479 H         1 UNK         0.0813 
    119 H119       29.5272   32.3647    4.0886 H         1 UNK         0.0813 
    120 H120       32.3432   32.9671    3.7627 H         1 UNK         0.3038 
    121 H121       33.2451   33.7406    6.3197 H         1 UNK         0.0769 
    122 H122       34.7311   35.2902    5.0287 H         1 UNK         0.0811 
    123 H123       33.0968   35.2937    4.3898 H         1 UNK         0.0811 
    124 H124       34.3739   34.4141    3.5469 H         1 UNK         0.0811 
    125 H125       34.6079   31.3145    4.1507 H         1 UNK         0.3204 
    126 H126       37.2327   31.2645    5.4540 H         1 UNK         0.0748 
    127 H127       37.6169   29.3308    3.9615 H         1 UNK         0.0771 
    128 H128       35.9252   29.3087    3.4890 H         1 UNK         0.0771 
    129 H129       36.9514   30.6693    3.0388 H         1 UNK         0.0771 
    130 H130       34.0844   29.9493    6.1568 H         1 UNK         0.2980 
    131 H131       35.2223   27.7849    7.8702 H         1 UNK         0.0545 
    132 H132       32.9936   30.6496    7.9169 H         1 UNK         0.3459 
    133 H133       32.9175   30.6775    9.6672 H         1 UNK         0.3459 
    134 H134       32.4073   28.0035    6.7006 H         1 UNK         0.0616 
    135 H135       32.9745   26.7389    7.7588 H         1 UNK         0.0616 
    136 H136       33.0898   28.4621    4.4935 H         1 UNK         0.0634 
    137 H137       34.1321   27.5413    3.4511 H         1 UNK         0.0634 
@<TRIPOS>BOND
     1    1    2 1    
     2    1   72 1    
     3    1   73 1    
     4    1   74 1    
     5    2    3 2    
     6    2    4 am   BACKBONE|DICT|INTERRES
     7    4    5 1    
     8    4   75 1    
     9    5    6 1    
    10    5   35 1    
    11    5   76 1    
    12    6    7 1    
    13    6   77 1    
    14    6   78 1    
    15    7    8 1    
    16    8    9 1    
    17    8   79 1    
    18    8   80 1    
    19    9   10 ar   
    20    9   14 ar   
    21   10   11 ar   
    22   10   81 1    
    23   11   12 ar   
    24   11   71 1    
    25   12   13 ar   
    26   12   82 1    
    27   13   14 ar   
    28   13   15 1    
    29   14   83 1    
    30   15   16 1    
    31   15   84 1    
    32   15   85 1    
    33   16   17 1    
    34   17   18 1    
    35   17   86 1    
    36   17   87 1    
    37   18   19 1    
    38   18   37 1    
    39   18   88 1    
    40   19   20 am   BACKBONE|DICT|INTERRES
    41   19   89 1    
    42   20   21 2    
    43   20   22 1    
    44   22   23 1    
    45   22   24 1    
    46   22   90 1    
    47   23   91 1    
    48   23   92 1    
    49   23   93 1    
    50   24   25 am   BACKBONE|DICT|INTERRES
    51   24   94 1    
    52   25   26 2    
    53   25   27 1    
    54   27   28 1    
    55   27   29 1    
    56   27   95 1    
    57   28   96 1    
    58   28   97 1    
    59   28   98 1    
    60   29   30 am   BACKBONE|DICT|INTERRES
    61   29   99 1    
    62   30   31 2    
    63   30   32 1    
    64   32   33 1    
    65   32   34 1    
    66   32  100 1    
    67   33  101 1    
    68   33  102 1    
    69   33  103 1    
    70   34   35 am   BACKBONE|DICT|INTERRES
    71   34  104 1    
    72   35   36 2    
    73   37   38 2    
    74   37   39 am   BACKBONE|DICT|INTERRES
    75   39   40 1    
    76   39  105 1    
    77   40   41 1    
    78   40   42 1    
    79   40  106 1    
    80   41  107 1    
    81   41  108 1    
    82   41  109 1    
    83   42   43 2    
    84   42   44 am   BACKBONE|DICT|INTERRES
    85   44   45 1    
    86   44  110 1    
    87   45   46 1    
    88   45   47 1    
    89   45  111 1    
    90   46  112 1    
    91   46  113 1    
    92   46  114 1    
    93   47   48 2    
    94   47   49 am   BACKBONE|DICT|INTERRES
    95   49   50 1    
    96   49  115 1    
    97   50   51 1    
    98   50   52 1    
    99   50  116 1    
   100   51  117 1    
   101   51  118 1    
   102   51  119 1    
   103   52   53 2    
   104   52   54 am   BACKBONE|DICT|INTERRES
   105   54   55 1    
   106   54  120 1    
   107   55   56 1    
   108   55   57 1    
   109   55  121 1    
   110   56  122 1    
   111   56  123 1    
   112   56  124 1    
   113   57   58 2    
   114   57   59 am   BACKBONE|DICT|INTERRES
   115   59   60 1    
   116   59  125 1    
   117   60   61 1    
   118   60   62 1    
   119   60  126 1    
   120   61  127 1    
   121   61  128 1    
   122   61  129 1    
   123   62   63 2    
   124   62   64 am   BACKBONE|DICT|INTERRES
   125   64   65 1    
   126   64  130 1    
   127   65   66 1    
   128   65   69 1    
   129   65  131 1    
   130   66   67 am   BACKBONE|DICT|INTERRES
   131   66   68 2    
   132   67  132 1    
   133   67  133 1    
   134   69   70 1    
   135   69  134 1    
   136   69  135 1    
   137   70   71 1    
   138   71  136 1    
   139   71  137 1    
@<TRIPOS>SUBSTRUCTURE
     1 UNK         1 GROUP             0       ****    0 ROOT    
