@<TRIPOS>MOLECULE
3R136
137   139    1
SMALL
USER_CHARGES


@<TRIPOS>ATOM
      1 CA         35.1911   22.8419    0.3846 C.3       0 UNK        -0.1979 
      2 C          33.8091   23.3985    0.6912 C.2       0 UNK         0.4864 
      3 O          33.6952   24.5352    1.1542 O.2       0 UNK        -0.5359 
      4 N          32.7569   22.6061    0.4493 N.am      1 UNK        -0.4318 
      5 CA         31.3657   23.0140    0.6502 C.3       1 UNK         0.0824 
      6 C6         30.3816   21.8151    0.6442 C.3       12 UNK        -0.0944 
      7 S7         30.7166   20.4764    1.8433 S.3       12 UNK        -0.2672 
      8 C8         31.1680   21.3367    3.3895 C.3       12 UNK         0.0333 
      9 C9         30.1745   22.4115    3.8230 C.ar      12 UNK        -0.0807 
     10 C10        30.6542   23.6625    4.2205 C.ar      12 UNK        -0.0894 
     11 C11        29.7725   24.6691    4.6161 C.ar      12 UNK        -0.0804 
     12 C12        28.4007   24.4136    4.6425 C.ar      12 UNK        -0.0824 
     13 C13        27.9006   23.1745    4.2298 C.ar      12 UNK        -0.0762 
     14 C14        28.7946   22.1732    3.8324 C.ar      12 UNK        -0.0782 
     15 C15        26.3992   22.9127    4.2170 C.3       12 UNK         0.0230 
     16 S16        25.5589   23.7471    2.8255 S.3       12 UNK        -0.2608 
     17 C17        25.3184   25.4331    3.4844 C.3       12 UNK        -0.0989 
     18 CA         26.1923   26.4918    2.7468 C.3       5 UNK         0.0716 
     19 N          25.7192   26.7639    1.3793 N.am      5 UNK        -0.4135 
     20 C          24.5863   27.4018    1.0344 C.2       4 UNK         0.5031 
     21 O          23.7485   27.7924    1.8482 O.2       4 UNK        -0.5229 
     22 CA         24.3544   27.7169   -0.4562 C.3       4 UNK         0.0329 
     23 CB         24.4875   29.2302   -0.7027 C.3       4 UNK        -0.2001 
     24 N          25.2770   27.0164   -1.3502 N.am      4 UNK        -0.4303 
     25 C          25.0915   25.7757   -1.8196 C.2       3 UNK         0.5044 
     26 O          24.0839   25.1014   -1.6047 O.2       3 UNK        -0.5152 
     27 CA         26.2397   25.1777   -2.6559 C.3       3 UNK         0.0319 
     28 CB         26.0106   25.4454   -4.1523 C.3       3 UNK        -0.2001 
     29 N          27.5776   25.6544   -2.2749 N.am      3 UNK        -0.4354 
     30 C          28.1249   25.4884   -1.0634 C.2       2 UNK         0.4964 
     31 O          27.5336   24.9817   -0.1087 O.2       2 UNK        -0.5047 
     32 CA         29.5438   26.0272   -0.8521 C.3       2 UNK         0.0288 
     33 CB         29.4955   27.4097   -0.1870 C.3       2 UNK        -0.2113 
     34 N          30.2643   25.1061    0.0224 N.am      2 UNK        -0.4145 
     35 C          30.9379   24.0373   -0.4164 C.2       1 UNK         0.5006 
     36 O          31.1786   23.8136   -1.6064 O.2       1 UNK        -0.5103 
     37 C          26.4000   27.7850    3.5798 C.2       5 UNK         0.5055 
     38 O          26.2590   27.7515    4.8040 O.2       5 UNK        -0.5220 
     39 N          26.7191   28.9080    2.9176 N.am      6 UNK        -0.4450 
     40 CA         26.7533   30.2395    3.5269 C.3       6 UNK         0.0367 
     41 CB         25.3220   30.8121    3.6092 C.3       6 UNK        -0.1929 
     42 C          27.7288   31.1747    2.7951 C.2       6 UNK         0.5070 
     43 O          27.4080   32.3422    2.5710 O.2       6 UNK        -0.5237 
     44 N          28.9177   30.6616    2.4491 N.am      7 UNK        -0.4739 
     45 CA         30.0034   31.4412    1.8317 C.3       7 UNK         0.0276 
     46 CB         30.7984   30.5416    0.8712 C.3       7 UNK        -0.1927 
     47 C          30.9221   32.1406    2.8572 C.2       7 UNK         0.5013 
     48 O          31.9679   32.6659    2.4701 O.2       7 UNK        -0.5193 
     49 N          30.5320   32.1313    4.1419 N.am      8 UNK        -0.4253 
     50 CA         31.2265   32.7314    5.2864 C.3       8 UNK         0.0242 
     51 CB         31.1437   34.2743    5.2176 C.3       8 UNK        -0.2000 
     52 C          32.6555   32.1750    5.4289 C.2       8 UNK         0.4948 
     53 O          32.8121   30.9574    5.5222 O.2       8 UNK        -0.5275 
     54 N          33.6692   33.0509    5.4076 N.am      9 UNK        -0.4246 
     55 CA         35.0905   32.7039    5.5080 C.3       9 UNK         0.0261 
     56 CB         35.9188   33.9965    5.5932 C.3       9 UNK        -0.1959 
     57 C          35.6144   31.8042    4.3713 C.2       9 UNK         0.5033 
     58 O          36.6152   31.1153    4.5749 O.2       9 UNK        -0.5390 
     59 N          34.9442   31.8123    3.2096 N.am      10 UNK        -0.4215 
     60 CA         35.2667   30.9477    2.0725 C.3       10 UNK         0.0240 
     61 CB         34.8744   31.6623    0.7683 C.3       10 UNK        -0.1982 
     62 C          34.6057   29.5585    2.1619 C.2       10 UNK         0.4970 
     63 O          34.9652   28.6876    1.3691 O.2       10 UNK        -0.4916 
     64 N          33.6587   29.3654    3.0910 N.am      11 UNK        -0.4279 
     65 CA         32.9732   28.0897    3.3241 C.3       11 UNK         0.1003 
     66 C          33.8723   27.1199    4.1363 C.2       11 UNK         0.5709 
     67 N          34.1152   25.9108    3.6503 N.am      11 UNK        -0.7358 
     68 O          34.3312   27.4493    5.2282 O.2       11 UNK        -0.4999 
     69 C69        31.6011   28.3264    4.0143 C.3       12 UNK        -0.0954 
     70 S70        30.3580   27.1007    3.5046 S.3       12 UNK        -0.2268 
     71 C71        30.3070   26.0413    4.9800 C.3       12 UNK         0.0203 
     72 H72        35.7978   22.8275    1.2895 H         1 UNK         0.0888 
     73 H73        35.1436   21.8267   -0.0089 H         1 UNK         0.0888 
     74 H74        35.6919   23.4691   -0.3523 H         1 UNK         0.0888 
     75 H75        32.8943   21.6866    0.0554 H         1 UNK         0.3017 
     76 H76        31.3090   23.5128    1.6159 H         1 UNK         0.0873 
     77 H77        29.3661   22.1697    0.8351 H         1 UNK         0.0745 
     78 H78        30.3524   21.3561   -0.3462 H         1 UNK         0.0745 
     79 H79        32.1666   21.7593    3.2671 H         1 UNK         0.0705 
     80 H80        31.2483   20.5970    4.1869 H         1 UNK         0.0705 
     81 H81        31.7172   23.8643    4.2037 H         1 UNK         0.1334 
     82 H82        27.7262   25.1937    4.9629 H         1 UNK         0.1417 
     83 H83        28.4176   21.2089    3.5194 H         1 UNK         0.1562 
     84 H84        25.9572   23.2176    5.1666 H         1 UNK         0.0748 
     85 H85        26.2086   21.8417    4.1336 H         1 UNK         0.0748 
     86 H86        25.5186   25.4091    4.5554 H         1 UNK         0.0940 
     87 H87        24.2604   25.6865    3.4073 H         1 UNK         0.0940 
     88 H88        27.1945   26.0764    2.6308 H         1 UNK         0.0703 
     89 H89        26.3016   26.3730    0.6468 H         1 UNK         0.3081 
     90 H90        23.3297   27.4236   -0.6950 H         1 UNK         0.0719 
     91 H91        25.4908   29.5931   -0.4764 H         1 UNK         0.0809 
     92 H92        24.2644   29.4838   -1.7393 H         1 UNK         0.0809 
     93 H93        23.7906   29.7918   -0.0787 H         1 UNK         0.0809 
     94 H94        26.1273   27.4988   -1.6021 H         1 UNK         0.2990 
     95 H95        26.2226   24.0972   -2.4976 H         1 UNK         0.0690 
     96 H96        26.7566   24.9396   -4.7656 H         1 UNK         0.0788 
     97 H97        26.0499   26.5106   -4.3835 H         1 UNK         0.0788 
     98 H98        25.0328   25.0793   -4.4690 H         1 UNK         0.0788 
     99 H99        28.1221   26.0976   -3.0016 H         1 UNK         0.2993 
    100 H100       30.0559   26.1121   -1.8134 H         1 UNK         0.0949 
    101 H101       28.9492   27.3914    0.7568 H         1 UNK         0.0767 
    102 H102       30.5031   27.7704    0.0180 H         1 UNK         0.0767 
    103 H103       29.0101   28.1400   -0.8354 H         1 UNK         0.0767 
    104 H104       30.0665   25.1887    1.0097 H         1 UNK         0.3013 
    105 H105       26.8480   28.8702    1.9166 H         1 UNK         0.3121 
    106 H106       27.1400   30.1538    4.5447 H         1 UNK         0.0774 
    107 H107       25.3135   31.7895    4.0932 H         1 UNK         0.0815 
    108 H108       24.8818   30.9307    2.6184 H         1 UNK         0.0815 
    109 H109       24.6653   30.1634    4.1891 H         1 UNK         0.0815 
    110 H110       29.1195   29.6984    2.6809 H         1 UNK         0.2987 
    111 H111       29.5691   32.2423    1.2293 H         1 UNK         0.0949 
    112 H112       31.6032   31.0930    0.3854 H         1 UNK         0.0806 
    113 H113       31.2466   29.6892    1.3794 H         1 UNK         0.0806 
    114 H114       30.1565   30.1672    0.0753 H         1 UNK         0.0806 
    115 H115       29.6761   31.6428    4.3581 H         1 UNK         0.3010 
    116 H116       30.6889   32.4107    6.1800 H         1 UNK         0.0829 
    117 H117       30.1059   34.6041    5.1661 H         1 UNK         0.0813 
    118 H118       31.5760   34.7361    6.1063 H         1 UNK         0.0813 
    119 H119       31.6561   34.6791    4.3439 H         1 UNK         0.0813 
    120 H120       33.4485   34.0310    5.3042 H         1 UNK         0.3038 
    121 H121       35.2249   32.1505    6.4398 H         1 UNK         0.0769 
    122 H122       36.9814   33.7732    5.7005 H         1 UNK         0.0811 
    123 H123       35.6294   34.5991    6.4544 H         1 UNK         0.0811 
    124 H124       35.8041   34.6094    4.6982 H         1 UNK         0.0811 
    125 H125       34.1105   32.3833    3.1227 H         1 UNK         0.3204 
    126 H126       36.3461   30.7834    2.0435 H         1 UNK         0.0748 
    127 H127       35.1243   31.0551   -0.1028 H         1 UNK         0.0771 
    128 H128       33.8062   31.8703    0.7243 H         1 UNK         0.0771 
    129 H129       35.4031   32.6098    0.6627 H         1 UNK         0.0771 
    130 H130       33.4693   30.0916    3.7726 H         1 UNK         0.2980 
    131 H131       32.7877   27.6458    2.3431 H         1 UNK         0.0545 
    132 H132       33.7942   25.6203    2.7303 H         1 UNK         0.3459 
    133 H133       34.6935   25.2853    4.1868 H         1 UNK         0.3459 
    134 H134       31.1983   29.2980    3.7339 H         1 UNK         0.0616 
    135 H135       31.6880   28.3618    5.1022 H         1 UNK         0.0616 
    136 H136       29.6834   26.5100    5.7428 H         1 UNK         0.0634 
    137 H137       31.3065   25.9462    5.4072 H         1 UNK         0.0634 
@<TRIPOS>BOND
     1    1    2 1    
     2    1   72 1    
     3    1   73 1    
     4    1   74 1    
     5    2    3 2    
     6    2    4 am   BACKBONE|DICT|INTERRES
     7    4    5 1    
     8    4   75 1    
     9    5    6 1    
    10    5   35 1    
    11    5   76 1    
    12    6    7 1    
    13    6   77 1    
    14    6   78 1    
    15    7    8 1    
    16    8    9 1    
    17    8   79 1    
    18    8   80 1    
    19    9   10 ar   
    20    9   14 ar   
    21   10   11 ar   
    22   10   81 1    
    23   11   12 ar   
    24   11   71 1    
    25   12   13 ar   
    26   12   82 1    
    27   13   14 ar   
    28   13   15 1    
    29   14   83 1    
    30   15   16 1    
    31   15   84 1    
    32   15   85 1    
    33   16   17 1    
    34   17   18 1    
    35   17   86 1    
    36   17   87 1    
    37   18   19 1    
    38   18   37 1    
    39   18   88 1    
    40   19   20 am   BACKBONE|DICT|INTERRES
    41   19   89 1    
    42   20   21 2    
    43   20   22 1    
    44   22   23 1    
    45   22   24 1    
    46   22   90 1    
    47   23   91 1    
    48   23   92 1    
    49   23   93 1    
    50   24   25 am   BACKBONE|DICT|INTERRES
    51   24   94 1    
    52   25   26 2    
    53   25   27 1    
    54   27   28 1    
    55   27   29 1    
    56   27   95 1    
    57   28   96 1    
    58   28   97 1    
    59   28   98 1    
    60   29   30 am   BACKBONE|DICT|INTERRES
    61   29   99 1    
    62   30   31 2    
    63   30   32 1    
    64   32   33 1    
    65   32   34 1    
    66   32  100 1    
    67   33  101 1    
    68   33  102 1    
    69   33  103 1    
    70   34   35 am   BACKBONE|DICT|INTERRES
    71   34  104 1    
    72   35   36 2    
    73   37   38 2    
    74   37   39 am   BACKBONE|DICT|INTERRES
    75   39   40 1    
    76   39  105 1    
    77   40   41 1    
    78   40   42 1    
    79   40  106 1    
    80   41  107 1    
    81   41  108 1    
    82   41  109 1    
    83   42   43 2    
    84   42   44 am   BACKBONE|DICT|INTERRES
    85   44   45 1    
    86   44  110 1    
    87   45   46 1    
    88   45   47 1    
    89   45  111 1    
    90   46  112 1    
    91   46  113 1    
    92   46  114 1    
    93   47   48 2    
    94   47   49 am   BACKBONE|DICT|INTERRES
    95   49   50 1    
    96   49  115 1    
    97   50   51 1    
    98   50   52 1    
    99   50  116 1    
   100   51  117 1    
   101   51  118 1    
   102   51  119 1    
   103   52   53 2    
   104   52   54 am   BACKBONE|DICT|INTERRES
   105   54   55 1    
   106   54  120 1    
   107   55   56 1    
   108   55   57 1    
   109   55  121 1    
   110   56  122 1    
   111   56  123 1    
   112   56  124 1    
   113   57   58 2    
   114   57   59 am   BACKBONE|DICT|INTERRES
   115   59   60 1    
   116   59  125 1    
   117   60   61 1    
   118   60   62 1    
   119   60  126 1    
   120   61  127 1    
   121   61  128 1    
   122   61  129 1    
   123   62   63 2    
   124   62   64 am   BACKBONE|DICT|INTERRES
   125   64   65 1    
   126   64  130 1    
   127   65   66 1    
   128   65   69 1    
   129   65  131 1    
   130   66   67 am   BACKBONE|DICT|INTERRES
   131   66   68 2    
   132   67  132 1    
   133   67  133 1    
   134   69   70 1    
   135   69  134 1    
   136   69  135 1    
   137   70   71 1    
   138   71  136 1    
   139   71  137 1    
@<TRIPOS>SUBSTRUCTURE
     1 UNK         1 GROUP             0       ****    0 ROOT    
