@<TRIPOS>MOLECULE
3R136
137   139    1
SMALL
USER_CHARGES


@<TRIPOS>ATOM
      1 CA         29.6205   22.4891    4.0633 C.3       0 UNK        -0.1979 
      2 C          29.3065   23.1167    2.7139 C.2       0 UNK         0.4864 
      3 O          29.2915   24.3441    2.6046 O.2       0 UNK        -0.5359 
      4 N          29.0560   22.2814    1.6923 N.am      1 UNK        -0.4318 
      5 CA         28.6771   22.6702    0.3250 C.3       1 UNK         0.0824 
      6 C6         29.8304   23.3590   -0.4505 C.3       12 UNK        -0.0944 
      7 S7         31.0942   22.1776   -1.0369 S.3       12 UNK        -0.2672 
      8 C8         32.2998   22.1034    0.3336 C.3       12 UNK         0.0333 
      9 C9         32.7734   23.4707    0.8118 C.ar      12 UNK        -0.0807 
     10 C10        32.7003   23.7907    2.1709 C.ar      12 UNK        -0.0894 
     11 C11        33.0761   25.0560    2.6259 C.ar      12 UNK        -0.0804 
     12 C12        33.5614   25.9940    1.7136 C.ar      12 UNK        -0.0824 
     13 C13        33.6373   25.6916    0.3520 C.ar      12 UNK        -0.0762 
     14 C14        33.2575   24.4223   -0.0929 C.ar      12 UNK        -0.0782 
     15 C15        34.0989   26.7517   -0.6372 C.3       12 UNK         0.0230 
     16 S16        32.7081   27.4529   -1.5866 S.3       12 UNK        -0.2608 
     17 C17        31.6099   28.1018   -0.2768 C.3       12 UNK        -0.0989 
     18 CA         30.3185   27.2434   -0.1014 C.3       5 UNK         0.0716 
     19 N          29.9223   27.0271    1.3003 N.am      5 UNK        -0.4135 
     20 C          29.7935   27.9570    2.2549 C.2       4 UNK         0.5031 
     21 O          30.0660   29.1516    2.1022 O.2       4 UNK        -0.5229 
     22 CA         29.1831   27.4636    3.5799 C.3       4 UNK         0.0329 
     23 CB         29.1251   28.5694    4.6539 C.3       4 UNK        -0.2001 
     24 N          27.8501   26.8674    3.3954 N.am      4 UNK        -0.4303 
     25 C          26.7750   27.4646    2.8614 C.2       3 UNK         0.5044 
     26 O          26.8015   28.5850    2.3538 O.2       3 UNK        -0.5152 
     27 CA         25.4612   26.6743    2.8761 C.3       3 UNK         0.0319 
     28 CB         24.2496   27.5380    2.4596 C.3       3 UNK        -0.2001 
     29 N          25.5615   25.5012    2.0102 N.am      3 UNK        -0.4354 
     30 C          24.7656   24.4291    2.0898 C.2       2 UNK         0.4964 
     31 O          23.9080   24.2810    2.9615 O.2       2 UNK        -0.5047 
     32 CA         24.9306   23.3321    1.0235 C.3       2 UNK         0.0288 
     33 CB         24.2857   23.7457   -0.3142 C.3       2 UNK        -0.2113 
     34 N          26.3056   22.8516    0.8399 N.am      2 UNK        -0.4145 
     35 C          27.3730   23.4976    0.3470 C.2       1 UNK         0.5006 
     36 O          27.3647   24.6761   -0.0176 O.2       1 UNK        -0.5103 
     37 C          29.1570   27.7375   -1.0007 C.2       5 UNK         0.5055 
     38 O          29.3399   27.8151   -2.2160 O.2       5 UNK        -0.5220 
     39 N          27.9925   28.0471   -0.4079 N.am      6 UNK        -0.4450 
     40 CA         26.7715   28.5830   -1.0236 C.3       6 UNK         0.0367 
     41 CB         26.0879   27.4979   -1.8804 C.3       6 UNK        -0.1929 
     42 C          27.0062   29.9007   -1.7996 C.2       6 UNK         0.5070 
     43 O          26.8555   29.9181   -3.0209 O.2       6 UNK        -0.5237 
     44 N          27.3720   31.0082   -1.1397 N.am      7 UNK        -0.4739 
     45 CA         27.6019   31.1863    0.2922 C.3       7 UNK         0.0276 
     46 CB         26.3140   31.6711    0.9807 C.3       7 UNK        -0.1927 
     47 C          28.7453   32.1889    0.4523 C.2       7 UNK         0.5013 
     48 O          28.5962   33.3418    0.0415 O.2       7 UNK        -0.5193 
     49 N          29.8640   31.7274    1.0201 N.am      8 UNK        -0.4253 
     50 CA         31.0627   32.5274    1.2799 C.3       8 UNK         0.0242 
     51 CB         32.2846   31.7574    0.7468 C.3       8 UNK        -0.2000 
     52 C          31.2451   32.8350    2.7761 C.2       8 UNK         0.4948 
     53 O          32.1445   33.6054    3.1134 O.2       8 UNK        -0.5275 
     54 N          30.4333   32.2040    3.6435 N.am      9 UNK        -0.4246 
     55 CA         30.5482   32.1821    5.1121 C.3       9 UNK         0.0261 
     56 CB         30.3122   33.5829    5.7165 C.3       9 UNK        -0.1959 
     57 C          31.8628   31.5294    5.5958 C.2       9 UNK         0.5033 
     58 O          32.3782   31.8756    6.6608 O.2       9 UNK        -0.5390 
     59 N          32.3802   30.5996    4.7848 N.am      10 UNK        -0.4215 
     60 CA         33.6043   29.8382    5.0087 C.3       10 UNK         0.0240 
     61 CB         34.0911   29.3398    3.6380 C.3       10 UNK        -0.1982 
     62 C          33.3894   28.6651    5.9806 C.2       10 UNK         0.4970 
     63 O          32.2493   28.3202    6.2975 O.2       10 UNK        -0.4916 
     64 N          34.5042   28.0555    6.4025 N.am      11 UNK        -0.4279 
     65 CA         34.5759   26.8797    7.2916 C.3       11 UNK         0.1003 
     66 C          34.1710   27.1546    8.7731 C.2       11 UNK         0.5709 
     67 N          34.0342   28.4029    9.2048 N.am      11 UNK        -0.7358 
     68 O          34.0132   26.2231    9.5593 O.2       11 UNK        -0.4999 
     69 C69        33.8776   25.6116    6.7127 C.3       12 UNK        -0.0954 
     70 S70        34.4401   25.1611    5.0340 S.3       12 UNK        -0.2268 
     71 C71        32.9099   25.4267    4.0904 C.3       12 UNK         0.0203 
     72 H72        30.4975   22.9591    4.5056 H         1 UNK         0.0888 
     73 H73        28.7816   22.6316    4.7437 H         1 UNK         0.0888 
     74 H74        29.8158   21.4203    3.9796 H         1 UNK         0.0888 
     75 H75        29.0905   21.2853    1.8590 H         1 UNK         0.3017 
     76 H76        28.4274   21.7503   -0.2067 H         1 UNK         0.0873 
     77 H77        30.2903   24.1378    0.1534 H         1 UNK         0.0745 
     78 H78        29.4518   23.8595   -1.3438 H         1 UNK         0.0745 
     79 H79        33.1657   21.5261    0.0076 H         1 UNK         0.0705 
     80 H80        31.8503   21.5423    1.1540 H         1 UNK         0.0705 
     81 H81        32.3281   23.0617    2.8761 H         1 UNK         0.1334 
     82 H82        33.8624   26.9695    2.0598 H         1 UNK         0.1417 
     83 H83        33.3051   24.1873   -1.1477 H         1 UNK         0.1562 
     84 H84        34.8168   26.3129   -1.3316 H         1 UNK         0.0748 
     85 H85        34.6247   27.5588   -0.1245 H         1 UNK         0.0748 
     86 H86        32.1768   28.1499    0.6520 H         1 UNK         0.0940 
     87 H87        31.3654   29.1403   -0.5070 H         1 UNK         0.0940 
     88 H88        30.5413   26.2417   -0.4644 H         1 UNK         0.0703 
     89 H89        29.6626   26.0737    1.5437 H         1 UNK         0.3081 
     90 H90        29.8380   26.6743    3.9525 H         1 UNK         0.0719 
     91 H91        28.7346   28.1860    5.5963 H         1 UNK         0.0809 
     92 H92        28.4983   29.4071    4.3463 H         1 UNK         0.0809 
     93 H93        30.1195   28.9619    4.8564 H         1 UNK         0.0809 
     94 H94        27.7659   25.9033    3.6907 H         1 UNK         0.2990 
     95 H95        25.3078   26.3444    3.9058 H         1 UNK         0.0690 
     96 H96        23.3102   27.0005    2.5875 H         1 UNK         0.0788 
     97 H97        24.3176   27.8481    1.4163 H         1 UNK         0.0788 
     98 H98        24.1855   28.4421    3.0666 H         1 UNK         0.0788 
     99 H99        26.2701   25.5149    1.2789 H         1 UNK         0.2993 
    100 H100       24.3723   22.4688    1.3902 H         1 UNK         0.0949 
    101 H101       24.7904   24.5972   -0.7686 H         1 UNK         0.0767 
    102 H102       24.3040   22.9254   -1.0318 H         1 UNK         0.0767 
    103 H103       23.2417   24.0280   -0.1716 H         1 UNK         0.0767 
    104 H104       26.4588   21.9053    1.1602 H         1 UNK         0.3013 
    105 H105       27.9525   27.9821    0.6013 H         1 UNK         0.3121 
    106 H106       26.0855   28.8192   -0.2102 H         1 UNK         0.0774 
    107 H107       25.1449   27.8599   -2.2915 H         1 UNK         0.0815 
    108 H108       26.7122   27.1864   -2.7183 H         1 UNK         0.0815 
    109 H109       25.8643   26.6142   -1.2851 H         1 UNK         0.0815 
    110 H110       27.5537   31.8425   -1.6820 H         1 UNK         0.2987 
    111 H111       27.9111   30.2602    0.7683 H         1 UNK         0.0949 
    112 H112       25.9481   32.6033    0.5486 H         1 UNK         0.0806 
    113 H113       25.5179   30.9307    0.9046 H         1 UNK         0.0806 
    114 H114       26.4861   31.8462    2.0435 H         1 UNK         0.0806 
    115 H115       29.9049   30.7532    1.3226 H         1 UNK         0.3010 
    116 H116       31.0069   33.4850    0.7579 H         1 UNK         0.0829 
    117 H117       32.1997   31.5741   -0.3244 H         1 UNK         0.0813 
    118 H118       33.2049   32.3218    0.9042 H         1 UNK         0.0813 
    119 H119       32.4041   30.7941    1.2440 H         1 UNK         0.0813 
    120 H120       29.7215   31.6017    3.2541 H         1 UNK         0.3038 
    121 H121       29.7458   31.5353    5.4695 H         1 UNK         0.0769 
    122 H122       31.1214   34.2722    5.4745 H         1 UNK         0.0811 
    123 H123       29.3803   34.0187    5.3567 H         1 UNK         0.0811 
    124 H124       30.2464   33.5320    6.8040 H         1 UNK         0.0811 
    125 H125       31.8560   30.3636    3.9555 H         1 UNK         0.3204 
    126 H126       34.3606   30.4999    5.4363 H         1 UNK         0.0748 
    127 H127       34.9520   28.6756    3.7250 H         1 UNK         0.0771 
    128 H128       33.3013   28.7981    3.1186 H         1 UNK         0.0771 
    129 H129       34.3916   30.1732    3.0023 H         1 UNK         0.0771 
    130 H130       35.3970   28.4126    6.0949 H         1 UNK         0.2980 
    131 H131       35.6394   26.6467    7.3506 H         1 UNK         0.0545 
    132 H132       34.1617   29.1794    8.5762 H         1 UNK         0.3459 
    133 H133       33.7849   28.5668   10.1674 H         1 UNK         0.3459 
    134 H134       34.0783   24.7491    7.3504 H         1 UNK         0.0616 
    135 H135       32.7937   25.7361    6.7198 H         1 UNK         0.0616 
    136 H136       32.1050   24.8398    4.5347 H         1 UNK         0.0634 
    137 H137       32.6060   26.4704    4.1725 H         1 UNK         0.0634 
@<TRIPOS>BOND
     1    1    2 1    
     2    1   72 1    
     3    1   73 1    
     4    1   74 1    
     5    2    3 2    
     6    2    4 am   BACKBONE|DICT|INTERRES
     7    4    5 1    
     8    4   75 1    
     9    5    6 1    
    10    5   35 1    
    11    5   76 1    
    12    6    7 1    
    13    6   77 1    
    14    6   78 1    
    15    7    8 1    
    16    8    9 1    
    17    8   79 1    
    18    8   80 1    
    19    9   10 ar   
    20    9   14 ar   
    21   10   11 ar   
    22   10   81 1    
    23   11   12 ar   
    24   11   71 1    
    25   12   13 ar   
    26   12   82 1    
    27   13   14 ar   
    28   13   15 1    
    29   14   83 1    
    30   15   16 1    
    31   15   84 1    
    32   15   85 1    
    33   16   17 1    
    34   17   18 1    
    35   17   86 1    
    36   17   87 1    
    37   18   19 1    
    38   18   37 1    
    39   18   88 1    
    40   19   20 am   BACKBONE|DICT|INTERRES
    41   19   89 1    
    42   20   21 2    
    43   20   22 1    
    44   22   23 1    
    45   22   24 1    
    46   22   90 1    
    47   23   91 1    
    48   23   92 1    
    49   23   93 1    
    50   24   25 am   BACKBONE|DICT|INTERRES
    51   24   94 1    
    52   25   26 2    
    53   25   27 1    
    54   27   28 1    
    55   27   29 1    
    56   27   95 1    
    57   28   96 1    
    58   28   97 1    
    59   28   98 1    
    60   29   30 am   BACKBONE|DICT|INTERRES
    61   29   99 1    
    62   30   31 2    
    63   30   32 1    
    64   32   33 1    
    65   32   34 1    
    66   32  100 1    
    67   33  101 1    
    68   33  102 1    
    69   33  103 1    
    70   34   35 am   BACKBONE|DICT|INTERRES
    71   34  104 1    
    72   35   36 2    
    73   37   38 2    
    74   37   39 am   BACKBONE|DICT|INTERRES
    75   39   40 1    
    76   39  105 1    
    77   40   41 1    
    78   40   42 1    
    79   40  106 1    
    80   41  107 1    
    81   41  108 1    
    82   41  109 1    
    83   42   43 2    
    84   42   44 am   BACKBONE|DICT|INTERRES
    85   44   45 1    
    86   44  110 1    
    87   45   46 1    
    88   45   47 1    
    89   45  111 1    
    90   46  112 1    
    91   46  113 1    
    92   46  114 1    
    93   47   48 2    
    94   47   49 am   BACKBONE|DICT|INTERRES
    95   49   50 1    
    96   49  115 1    
    97   50   51 1    
    98   50   52 1    
    99   50  116 1    
   100   51  117 1    
   101   51  118 1    
   102   51  119 1    
   103   52   53 2    
   104   52   54 am   BACKBONE|DICT|INTERRES
   105   54   55 1    
   106   54  120 1    
   107   55   56 1    
   108   55   57 1    
   109   55  121 1    
   110   56  122 1    
   111   56  123 1    
   112   56  124 1    
   113   57   58 2    
   114   57   59 am   BACKBONE|DICT|INTERRES
   115   59   60 1    
   116   59  125 1    
   117   60   61 1    
   118   60   62 1    
   119   60  126 1    
   120   61  127 1    
   121   61  128 1    
   122   61  129 1    
   123   62   63 2    
   124   62   64 am   BACKBONE|DICT|INTERRES
   125   64   65 1    
   126   64  130 1    
   127   65   66 1    
   128   65   69 1    
   129   65  131 1    
   130   66   67 am   BACKBONE|DICT|INTERRES
   131   66   68 2    
   132   67  132 1    
   133   67  133 1    
   134   69   70 1    
   135   69  134 1    
   136   69  135 1    
   137   70   71 1    
   138   71  136 1    
   139   71  137 1    
@<TRIPOS>SUBSTRUCTURE
     1 UNK         1 GROUP             0       ****    0 ROOT    
