@<TRIPOS>MOLECULE
3R136
137   139    1
SMALL
USER_CHARGES


@<TRIPOS>ATOM
      1 CA         30.7729   26.0886   -4.1483 C.3       0 UNK        -0.1979 
      2 C          30.2986   25.6969   -2.7580 C.2       0 UNK         0.4864 
      3 O          29.5926   26.4733   -2.1140 O.2       0 UNK        -0.5359 
      4 N          30.6650   24.4928   -2.2957 N.am      1 UNK        -0.4318 
      5 CA         30.3617   23.9458   -0.9640 C.3       1 UNK         0.0824 
      6 C6         30.9920   22.5475   -0.7669 C.3       12 UNK        -0.0944 
      7 S7         32.8046   22.6852   -0.6050 S.3       12 UNK        -0.2672 
      8 C8         33.1075   22.0496    1.0777 C.3       12 UNK         0.0333 
      9 C9         32.3265   22.7930    2.1563 C.ar      12 UNK        -0.0807 
     10 C10        32.6923   24.0878    2.5375 C.ar      12 UNK        -0.0894 
     11 C11        31.9960   24.7469    3.5555 C.ar      12 UNK        -0.0804 
     12 C12        30.9342   24.0997    4.1961 C.ar      12 UNK        -0.0824 
     13 C13        30.5405   22.8121    3.8121 C.ar      12 UNK        -0.0762 
     14 C14        31.2512   22.1668    2.7956 C.ar      12 UNK        -0.0782 
     15 C15        29.3862   22.0648    4.4871 C.3       12 UNK         0.0230 
     16 S16        28.0790   23.1050    5.2333 S.3       12 UNK        -0.2608 
     17 C17        27.4400   24.0270    3.7929 C.3       12 UNK        -0.0989 
     18 CA         27.6940   25.5531    3.9377 C.3       5 UNK         0.0716 
     19 N          28.2639   26.1470    2.7252 N.am      5 UNK        -0.4135 
     20 C          28.9003   27.3270    2.7073 C.2       4 UNK         0.5031 
     21 O          29.1214   28.0037    3.7118 O.2       4 UNK        -0.5229 
     22 CA         29.3364   27.8739    1.3426 C.3       4 UNK         0.0329 
     23 CB         30.7691   27.4332    1.0155 C.3       4 UNK        -0.2001 
     24 N          28.4360   27.5434    0.2360 N.am      4 UNK        -0.4303 
     25 C          27.1508   27.9208    0.1678 C.2       3 UNK         0.5044 
     26 O          26.5657   28.5076    1.0773 O.2       3 UNK        -0.5152 
     27 CA         26.3846   27.5645   -1.1129 C.3       3 UNK         0.0319 
     28 CB         26.7436   28.5344   -2.2502 C.3       3 UNK        -0.2001 
     29 N          26.6729   26.1914   -1.5234 N.am      3 UNK        -0.4354 
     30 C          25.9925   25.1189   -1.0940 C.2       2 UNK         0.4964 
     31 O          24.9803   25.1829   -0.3959 O.2       2 UNK        -0.5047 
     32 CA         26.5397   23.7337   -1.4900 C.3       2 UNK         0.0288 
     33 CB         25.9013   23.2579   -2.8050 C.3       2 UNK        -0.2113 
     34 N          28.0000   23.6868   -1.6157 N.am      2 UNK        -0.4145 
     35 C          28.8597   23.9368   -0.6166 C.2       1 UNK         0.5006 
     36 O          28.5090   24.2119    0.5312 O.2       1 UNK        -0.5103 
     37 C          26.4583   26.3173    4.4685 C.2       5 UNK         0.5055 
     38 O          26.1312   26.1639    5.6466 O.2       5 UNK        -0.5220 
     39 N          25.8134   27.1461    3.6295 N.am      6 UNK        -0.4450 
     40 CA         24.8496   28.1524    4.0763 C.3       6 UNK         0.0367 
     41 CB         23.8323   28.4746    2.9673 C.3       6 UNK        -0.1929 
     42 C          25.6121   29.3993    4.5508 C.2       6 UNK         0.5070 
     43 O          25.5034   29.7504    5.7260 O.2       6 UNK        -0.5237 
     44 N          26.4100   30.0022    3.6562 N.am      7 UNK        -0.4739 
     45 CA         27.3533   31.0826    3.9556 C.3       7 UNK         0.0276 
     46 CB         26.6250   32.3629    4.4218 C.3       7 UNK        -0.1927 
     47 C          28.2053   31.4041    2.7202 C.2       7 UNK         0.5013 
     48 O          27.6441   31.6698    1.6556 O.2       7 UNK        -0.5193 
     49 N          29.5298   31.4526    2.9038 N.am      8 UNK        -0.4253 
     50 CA         30.5215   32.0196    1.9887 C.3       8 UNK         0.0242 
     51 CB         30.7040   31.1704    0.7146 C.3       8 UNK        -0.2000 
     52 C          31.8498   32.1331    2.7451 C.2       8 UNK         0.4948 
     53 O          32.0299   31.4752    3.7755 O.2       8 UNK        -0.5275 
     54 N          32.7801   32.9236    2.1934 N.am      9 UNK        -0.4246 
     55 CA         34.1101   33.2080    2.7521 C.3       9 UNK         0.0261 
     56 CB         34.8058   34.2599    1.8718 C.3       9 UNK        -0.1959 
     57 C          35.0257   31.9817    2.9478 C.2       9 UNK         0.5033 
     58 O          36.0094   32.0839    3.6820 O.2       9 UNK        -0.5390 
     59 N          34.6904   30.8501    2.3112 N.am      10 UNK        -0.4215 
     60 CA         35.3518   29.5548    2.4857 C.3       10 UNK         0.0240 
     61 CB         34.8180   28.5654    1.4369 C.3       10 UNK        -0.1982 
     62 C          35.2083   28.9715    3.9055 C.2       10 UNK         0.4970 
     63 O          36.1113   28.2540    4.3378 O.2       10 UNK        -0.4916 
     64 N          34.1063   29.2934    4.5984 N.am      11 UNK        -0.4279 
     65 CA         33.8697   28.9373    6.0078 C.3       11 UNK         0.1003 
     66 C          33.5776   30.1757    6.8998 C.2       11 UNK         0.5709 
     67 N          33.0977   31.2954    6.3713 N.am      11 UNK        -0.7358 
     68 O          33.8104   30.1249    8.1053 O.2       11 UNK        -0.4999 
     69 C69        32.7538   27.8716    6.1687 C.3       12 UNK        -0.0954 
     70 S70        33.2309   26.2209    5.5499 S.3       12 UNK        -0.2268 
     71 C71        32.3631   26.1679    3.9550 C.3       12 UNK         0.0203 
     72 H72        31.3777   25.3077   -4.6088 H         1 UNK         0.0888 
     73 H73        29.9174   26.2828   -4.7945 H         1 UNK         0.0888 
     74 H74        31.3728   26.9966   -4.0951 H         1 UNK         0.0888 
     75 H75        31.2555   23.9090   -2.8712 H         1 UNK         0.3017 
     76 H76        30.8239   24.6185   -0.2428 H         1 UNK         0.0873 
     77 H77        30.5868   22.0480    0.1138 H         1 UNK         0.0745 
     78 H78        30.7591   21.8936   -1.6092 H         1 UNK         0.0745 
     79 H79        34.1743   22.1260    1.2929 H         1 UNK         0.0705 
     80 H80        32.8725   20.9842    1.0971 H         1 UNK         0.0705 
     81 H81        33.5188   24.5785    2.0416 H         1 UNK         0.1334 
     82 H82        30.4206   24.6080    4.9987 H         1 UNK         0.1417 
     83 H83        30.9700   21.1634    2.5051 H         1 UNK         0.1562 
     84 H84        29.8035   21.4290    5.2689 H         1 UNK         0.0748 
     85 H85        28.9103   21.3945    3.7694 H         1 UNK         0.0748 
     86 H86        26.3807   23.7968    3.6616 H         1 UNK         0.0940 
     87 H87        27.9278   23.6310    2.9033 H         1 UNK         0.0940 
     88 H88        28.4526   25.6995    4.7086 H         1 UNK         0.0703 
     89 H89        28.1837   25.6108    1.8651 H         1 UNK         0.3081 
     90 H90        29.3207   28.9580    1.4281 H         1 UNK         0.0719 
     91 H91        30.8853   26.3541    1.0952 H         1 UNK         0.0809 
     92 H92        31.0719   27.7394    0.0140 H         1 UNK         0.0809 
     93 H93        31.4682   27.8830    1.7191 H         1 UNK         0.0809 
     94 H94        28.8522   27.0884   -0.5751 H         1 UNK         0.2990 
     95 H95        25.3171   27.6712   -0.9075 H         1 UNK         0.0690 
     96 H96        27.8014   28.4854   -2.5115 H         1 UNK         0.0788 
     97 H97        26.5265   29.5646   -1.9644 H         1 UNK         0.0788 
     98 H98        26.1669   28.3189   -3.1497 H         1 UNK         0.0788 
     99 H99        27.5315   26.0511   -2.0432 H         1 UNK         0.2993 
    100 H100       26.2560   23.0370   -0.6980 H         1 UNK         0.0949 
    101 H101       26.1732   23.9019   -3.6425 H         1 UNK         0.0767 
    102 H102       26.2063   22.2401   -3.0494 H         1 UNK         0.0767 
    103 H103       24.8127   23.2591   -2.7328 H         1 UNK         0.0767 
    104 H104       28.3748   23.4853   -2.5313 H         1 UNK         0.3013 
    105 H105       26.1684   27.2641    2.6872 H         1 UNK         0.3121 
    106 H106       24.2850   27.7581    4.9244 H         1 UNK         0.0774 
    107 H107       23.0672   29.1580    3.3375 H         1 UNK         0.0815 
    108 H108       24.2893   28.9488    2.1000 H         1 UNK         0.0815 
    109 H109       23.3230   27.5739    2.6248 H         1 UNK         0.0815 
    110 H110       26.4516   29.6399    2.7054 H         1 UNK         0.2987 
    111 H111       28.0112   30.7368    4.7560 H         1 UNK         0.0949 
    112 H112       25.8665   32.6753    3.7030 H         1 UNK         0.0806 
    113 H113       26.1375   32.2305    5.3869 H         1 UNK         0.0806 
    114 H114       27.3253   33.1915    4.5363 H         1 UNK         0.0806 
    115 H115       29.9246   31.1977    3.8023 H         1 UNK         0.3010 
    116 H116       30.1899   33.0231    1.7140 H         1 UNK         0.0829 
    117 H117       31.3366   31.6863   -0.0084 H         1 UNK         0.0813 
    118 H118       31.1854   30.2184    0.9324 H         1 UNK         0.0813 
    119 H119       29.7579   30.9694    0.2127 H         1 UNK         0.0813 
    120 H120       32.5490   33.4069    1.3367 H         1 UNK         0.3038 
    121 H121       33.9562   33.6419    3.7424 H         1 UNK         0.0769 
    122 H122       35.7840   34.5248    2.2761 H         1 UNK         0.0811 
    123 H123       34.2239   35.1801    1.8152 H         1 UNK         0.0811 
    124 H124       34.9619   33.8960    0.8554 H         1 UNK         0.0811 
    125 H125       33.8772   30.8711    1.7148 H         1 UNK         0.3204 
    126 H126       36.4185   29.7015    2.3028 H         1 UNK         0.0748 
    127 H127       35.2905   27.5878    1.5445 H         1 UNK         0.0771 
    128 H128       33.7427   28.4195    1.5303 H         1 UNK         0.0771 
    129 H129       35.0228   28.9121    0.4238 H         1 UNK         0.0771 
    130 H130       33.4250   29.9149    4.1806 H         1 UNK         0.2980 
    131 H131       34.7836   28.5120    6.4267 H         1 UNK         0.0545 
    132 H132       32.8076   31.3505    5.3989 H         1 UNK         0.3459 
    133 H133       32.9328   32.0808    6.9795 H         1 UNK         0.3459 
    134 H134       32.5078   27.7370    7.2239 H         1 UNK         0.0616 
    135 H135       31.8314   28.2087    5.6928 H         1 UNK         0.0616 
    136 H136       32.9906   26.6377    3.1971 H         1 UNK         0.0634 
    137 H137       31.4503   26.7574    4.0129 H         1 UNK         0.0634 
@<TRIPOS>BOND
     1    1    2 1    
     2    1   72 1    
     3    1   73 1    
     4    1   74 1    
     5    2    3 2    
     6    2    4 am   BACKBONE|DICT|INTERRES
     7    4    5 1    
     8    4   75 1    
     9    5    6 1    
    10    5   35 1    
    11    5   76 1    
    12    6    7 1    
    13    6   77 1    
    14    6   78 1    
    15    7    8 1    
    16    8    9 1    
    17    8   79 1    
    18    8   80 1    
    19    9   10 ar   
    20    9   14 ar   
    21   10   11 ar   
    22   10   81 1    
    23   11   12 ar   
    24   11   71 1    
    25   12   13 ar   
    26   12   82 1    
    27   13   14 ar   
    28   13   15 1    
    29   14   83 1    
    30   15   16 1    
    31   15   84 1    
    32   15   85 1    
    33   16   17 1    
    34   17   18 1    
    35   17   86 1    
    36   17   87 1    
    37   18   19 1    
    38   18   37 1    
    39   18   88 1    
    40   19   20 am   BACKBONE|DICT|INTERRES
    41   19   89 1    
    42   20   21 2    
    43   20   22 1    
    44   22   23 1    
    45   22   24 1    
    46   22   90 1    
    47   23   91 1    
    48   23   92 1    
    49   23   93 1    
    50   24   25 am   BACKBONE|DICT|INTERRES
    51   24   94 1    
    52   25   26 2    
    53   25   27 1    
    54   27   28 1    
    55   27   29 1    
    56   27   95 1    
    57   28   96 1    
    58   28   97 1    
    59   28   98 1    
    60   29   30 am   BACKBONE|DICT|INTERRES
    61   29   99 1    
    62   30   31 2    
    63   30   32 1    
    64   32   33 1    
    65   32   34 1    
    66   32  100 1    
    67   33  101 1    
    68   33  102 1    
    69   33  103 1    
    70   34   35 am   BACKBONE|DICT|INTERRES
    71   34  104 1    
    72   35   36 2    
    73   37   38 2    
    74   37   39 am   BACKBONE|DICT|INTERRES
    75   39   40 1    
    76   39  105 1    
    77   40   41 1    
    78   40   42 1    
    79   40  106 1    
    80   41  107 1    
    81   41  108 1    
    82   41  109 1    
    83   42   43 2    
    84   42   44 am   BACKBONE|DICT|INTERRES
    85   44   45 1    
    86   44  110 1    
    87   45   46 1    
    88   45   47 1    
    89   45  111 1    
    90   46  112 1    
    91   46  113 1    
    92   46  114 1    
    93   47   48 2    
    94   47   49 am   BACKBONE|DICT|INTERRES
    95   49   50 1    
    96   49  115 1    
    97   50   51 1    
    98   50   52 1    
    99   50  116 1    
   100   51  117 1    
   101   51  118 1    
   102   51  119 1    
   103   52   53 2    
   104   52   54 am   BACKBONE|DICT|INTERRES
   105   54   55 1    
   106   54  120 1    
   107   55   56 1    
   108   55   57 1    
   109   55  121 1    
   110   56  122 1    
   111   56  123 1    
   112   56  124 1    
   113   57   58 2    
   114   57   59 am   BACKBONE|DICT|INTERRES
   115   59   60 1    
   116   59  125 1    
   117   60   61 1    
   118   60   62 1    
   119   60  126 1    
   120   61  127 1    
   121   61  128 1    
   122   61  129 1    
   123   62   63 2    
   124   62   64 am   BACKBONE|DICT|INTERRES
   125   64   65 1    
   126   64  130 1    
   127   65   66 1    
   128   65   69 1    
   129   65  131 1    
   130   66   67 am   BACKBONE|DICT|INTERRES
   131   66   68 2    
   132   67  132 1    
   133   67  133 1    
   134   69   70 1    
   135   69  134 1    
   136   69  135 1    
   137   70   71 1    
   138   71  136 1    
   139   71  137 1    
@<TRIPOS>SUBSTRUCTURE
     1 UNK         1 GROUP             0       ****    0 ROOT    
