@<TRIPOS>MOLECULE
3R136
137   139    1
SMALL
USER_CHARGES


@<TRIPOS>ATOM
      1 CA         27.8882   21.9201    0.4992 C.3       0 UNK        -0.1979 
      2 C          28.9913   22.2381   -0.4997 C.2       0 UNK         0.4864 
      3 O          29.4287   21.3503   -1.2329 O.2       0 UNK        -0.5359 
      4 N          29.4356   23.4968   -0.5384 N.am      1 UNK        -0.4318 
      5 CA         30.4116   24.0281   -1.4867 C.3       1 UNK         0.0824 
      6 C6         31.8874   23.7819   -1.0689 C.3       12 UNK        -0.0944 
      7 S7         32.3172   24.3940    0.5985 S.3       12 UNK        -0.2672 
      8 C8         32.3666   22.8565    1.5679 C.3       12 UNK         0.0333 
      9 C9         31.8263   23.0803    2.9718 C.ar      12 UNK        -0.0807 
     10 C10        32.6557   23.5680    3.9864 C.ar      12 UNK        -0.0894 
     11 C11        32.1606   23.7614    5.2840 C.ar      12 UNK        -0.0804 
     12 C12        30.8229   23.4480    5.5539 C.ar      12 UNK        -0.0824 
     13 C13        29.9881   22.9450    4.5503 C.ar      12 UNK        -0.0762 
     14 C14        30.4956   22.7722    3.2613 C.ar      12 UNK        -0.0782 
     15 C15        28.5565   22.5282    4.8633 C.3       12 UNK         0.0230 
     16 S16        27.3207   23.6031    4.0668 S.3       12 UNK        -0.2608 
     17 C17        27.5016   25.1427    5.0242 C.3       12 UNK        -0.0989 
     18 CA         27.8460   26.3490    4.1200 C.3       5 UNK         0.0716 
     19 N          26.7606   26.6610    3.1848 N.am      5 UNK        -0.4135 
     20 C          26.7606   27.6449    2.2750 C.2       4 UNK         0.5031 
     21 O          27.7138   28.4040    2.0622 O.2       4 UNK        -0.5229 
     22 CA         25.4338   27.8579    1.5253 C.3       4 UNK         0.0329 
     23 CB         24.7121   29.1021    2.0660 C.3       4 UNK        -0.2001 
     24 N          25.6290   28.0140    0.0855 N.am      4 UNK        -0.4303 
     25 C          26.0100   27.0396   -0.7493 C.2       3 UNK         0.5044 
     26 O          26.1917   25.8712   -0.4037 O.2       3 UNK        -0.5152 
     27 CA         26.2491   27.4291   -2.2147 C.3       3 UNK         0.0319 
     28 CB         25.6010   28.7674   -2.6405 C.3       3 UNK        -0.2001 
     29 N          27.6933   27.4430   -2.4050 N.am      3 UNK        -0.4354 
     30 C          28.3652   27.4830   -3.5584 C.2       2 UNK         0.4964 
     31 O          27.8380   27.6013   -4.6647 O.2       2 UNK        -0.5047 
     32 CA         29.8942   27.3223   -3.4600 C.3       2 UNK         0.0288 
     33 CB         30.5439   28.4866   -2.6834 C.3       2 UNK        -0.2113 
     34 N          30.2936   26.0092   -2.9266 N.am      2 UNK        -0.4145 
     35 C          30.0717   25.5124   -1.6994 C.2       1 UNK         0.5006 
     36 O          29.5778   26.1596   -0.7707 O.2       1 UNK        -0.5103 
     37 C          28.1817   27.5735    4.9889 C.2       5 UNK         0.5055 
     38 O          27.2683   28.2253    5.5031 O.2       5 UNK        -0.5220 
     39 N          29.4829   27.8629    5.1123 N.am      6 UNK        -0.4450 
     40 CA         30.0976   29.0439    5.7310 C.3       6 UNK         0.0367 
     41 CB         29.7860   29.1347    7.2372 C.3       6 UNK        -0.1929 
     42 C          29.7758   30.3622    5.0028 C.2       6 UNK         0.5070 
     43 O          30.7038   31.0500    4.5818 O.2       6 UNK        -0.5237 
     44 N          28.4839   30.6810    4.8575 N.am      7 UNK        -0.4739 
     45 CA         27.9545   31.9392    4.3260 C.3       7 UNK         0.0276 
     46 CB         26.4216   31.9349    4.4348 C.3       7 UNK        -0.1927 
     47 C          28.4046   32.2707    2.8938 C.2       7 UNK         0.5013 
     48 O          28.8217   33.4042    2.6511 O.2       7 UNK        -0.5193 
     49 N          28.3279   31.2905    1.9831 N.am      8 UNK        -0.4253 
     50 CA         28.8333   31.4197    0.6124 C.3       8 UNK         0.0242 
     51 CB         27.8459   30.7793   -0.3729 C.3       8 UNK        -0.2000 
     52 C          30.2136   30.7669    0.4739 C.2       8 UNK         0.4948 
     53 O          31.0524   31.2825   -0.2646 O.2       8 UNK        -0.5275 
     54 N          30.4203   29.6470    1.1819 N.am      9 UNK        -0.4246 
     55 CA         31.6470   28.8473    1.1600 C.3       9 UNK         0.0261 
     56 CB         31.4158   27.5752    1.9885 C.3       9 UNK        -0.1959 
     57 C          32.9080   29.5693    1.6697 C.2       9 UNK         0.5033 
     58 O          34.0079   29.1903    1.2664 O.2       9 UNK        -0.5390 
     59 N          32.7362   30.5397    2.5833 N.am      10 UNK        -0.4215 
     60 CA         33.7803   31.2232    3.3647 C.3       10 UNK         0.0240 
     61 CB         34.7481   32.0124    2.4570 C.3       10 UNK        -0.1982 
     62 C          34.5094   30.2848    4.3520 C.2       10 UNK         0.4970 
     63 O          35.6175   30.5953    4.7919 O.2       10 UNK        -0.4916 
     64 N          33.8686   29.1561    4.6794 N.am      11 UNK        -0.4279 
     65 CA         34.3306   28.1340    5.6216 C.3       11 UNK         0.1003 
     66 C          34.3094   28.6396    7.0903 C.2       11 UNK         0.5709 
     67 N          35.2938   28.2638    7.8948 N.am      11 UNK        -0.7358 
     68 O          33.3906   29.3402    7.5110 O.2       11 UNK        -0.4999 
     69 C69        33.5023   26.8339    5.4382 C.3       12 UNK        -0.0954 
     70 S70        34.4198   25.3463    5.9451 S.3       12 UNK        -0.2268 
     71 C71        33.0545   24.2368    6.4319 C.3       12 UNK         0.0203 
     72 H72        27.6182   22.7914    1.0961 H         1 UNK         0.0888 
     73 H73        26.9950   21.5828   -0.0258 H         1 UNK         0.0888 
     74 H74        28.2046   21.1266    1.1754 H         1 UNK         0.0888 
     75 H75        29.0290   24.2130    0.0523 H         1 UNK         0.3017 
     76 H76        30.2474   23.5291   -2.4445 H         1 UNK         0.0873 
     77 H77        32.1096   22.7158   -1.1313 H         1 UNK         0.0745 
     78 H78        32.5627   24.2546   -1.7842 H         1 UNK         0.0745 
     79 H79        31.7845   22.0786    1.0716 H         1 UNK         0.0705 
     80 H80        33.3935   22.4906    1.6103 H         1 UNK         0.0705 
     81 H81        33.6900   23.7854    3.7595 H         1 UNK         0.1334 
     82 H82        30.4382   23.5679    6.5577 H         1 UNK         0.1417 
     83 H83        29.8547   22.3808    2.4857 H         1 UNK         0.1562 
     84 H84        28.3793   22.5085    5.9398 H         1 UNK         0.0748 
     85 H85        28.4028   21.5058    4.5148 H         1 UNK         0.0748 
     86 H86        28.2718   25.0014    5.7850 H         1 UNK         0.0940 
     87 H87        26.5735   25.3215    5.5713 H         1 UNK         0.0940 
     88 H88        28.7230   26.0968    3.5191 H         1 UNK         0.0703 
     89 H89        25.9271   26.1026    3.2909 H         1 UNK         0.3081 
     90 H90        24.7903   26.9901    1.6861 H         1 UNK         0.0719 
     91 H91        25.2774   30.0132    1.8663 H         1 UNK         0.0809 
     92 H92        23.7257   29.2153    1.6157 H         1 UNK         0.0809 
     93 H93        24.5684   29.0344    3.1455 H         1 UNK         0.0809 
     94 H94        25.5237   28.9459   -0.2853 H         1 UNK         0.2990 
     95 H95        25.8287   26.6310   -2.8296 H         1 UNK         0.0690 
     96 H96        25.6737   28.9131   -3.7181 H         1 UNK         0.0788 
     97 H97        26.0707   29.6275   -2.1669 H         1 UNK         0.0788 
     98 H98        24.5381   28.7865   -2.3953 H         1 UNK         0.0788 
     99 H99        28.2393   27.2301   -1.5710 H         1 UNK         0.2993 
    100 H100       30.2799   27.3603   -4.4804 H         1 UNK         0.0949 
    101 H101       30.3213   29.4426   -3.1589 H         1 UNK         0.0767 
    102 H102       30.1842   28.5502   -1.6570 H         1 UNK         0.0767 
    103 H103       31.6286   28.3853   -2.6504 H         1 UNK         0.0767 
    104 H104       30.6916   25.3849   -3.6151 H         1 UNK         0.3013 
    105 H105       30.1319   27.2341    4.6622 H         1 UNK         0.3121 
    106 H106       31.1738   28.8990    5.6437 H         1 UNK         0.0774 
    107 H107       30.3320   29.9615    7.6935 H         1 UNK         0.0815 
    108 H108       28.7265   29.2992    7.4339 H         1 UNK         0.0815 
    109 H109       30.0870   28.2255    7.7574 H         1 UNK         0.0815 
    110 H110       27.8074   29.9957    5.1868 H         1 UNK         0.2987 
    111 H111       28.3326   32.7375    4.9684 H         1 UNK         0.0949 
    112 H112       26.0999   31.8664    5.4742 H         1 UNK         0.0806 
    113 H113       25.9816   31.0970    3.8953 H         1 UNK         0.0806 
    114 H114       25.9949   32.8513    4.0245 H         1 UNK         0.0806 
    115 H115       27.9843   30.3758    2.2600 H         1 UNK         0.3010 
    116 H116       28.9327   32.4733    0.3422 H         1 UNK         0.0829 
    117 H117       26.8427   31.1881   -0.2533 H         1 UNK         0.0813 
    118 H118       28.1546   30.9644   -1.4027 H         1 UNK         0.0813 
    119 H119       27.7946   29.6990   -0.2441 H         1 UNK         0.0813 
    120 H120       29.6342   29.2566    1.6888 H         1 UNK         0.3038 
    121 H121       31.8352   28.5534    0.1257 H         1 UNK         0.0769 
    122 H122       30.5927   26.9811    1.5905 H         1 UNK         0.0811 
    123 H123       31.1943   27.8097    3.0265 H         1 UNK         0.0811 
    124 H124       32.3042   26.9430    1.9844 H         1 UNK         0.0811 
    125 H125       31.7893   30.7575    2.8800 H         1 UNK         0.3204 
    126 H126       33.2549   31.9505    3.9853 H         1 UNK         0.0748 
    127 H127       34.2054   32.6554    1.7640 H         1 UNK         0.0771 
    128 H128       35.4020   32.6542    3.0487 H         1 UNK         0.0771 
    129 H129       35.3886   31.3522    1.8718 H         1 UNK         0.0771 
    130 H130       32.9548   29.0146    4.2839 H         1 UNK         0.2980 
    131 H131       35.3674   27.9227    5.3510 H         1 UNK         0.0545 
    132 H132       35.2881   28.5727    8.8541 H         1 UNK         0.3459 
    133 H133       36.0351   27.6662    7.5636 H         1 UNK         0.3459 
    134 H134       32.5524   26.8888    5.9733 H         1 UNK         0.0616 
    135 H135       33.2486   26.6878    4.3870 H         1 UNK         0.0616 
    136 H136       32.4574   24.7401    7.1942 H         1 UNK         0.0634 
    137 H137       33.4860   23.3575    6.9115 H         1 UNK         0.0634 
@<TRIPOS>BOND
     1    1    2 1    
     2    1   72 1    
     3    1   73 1    
     4    1   74 1    
     5    2    3 2    
     6    2    4 am   BACKBONE|DICT|INTERRES
     7    4    5 1    
     8    4   75 1    
     9    5    6 1    
    10    5   35 1    
    11    5   76 1    
    12    6    7 1    
    13    6   77 1    
    14    6   78 1    
    15    7    8 1    
    16    8    9 1    
    17    8   79 1    
    18    8   80 1    
    19    9   10 ar   
    20    9   14 ar   
    21   10   11 ar   
    22   10   81 1    
    23   11   12 ar   
    24   11   71 1    
    25   12   13 ar   
    26   12   82 1    
    27   13   14 ar   
    28   13   15 1    
    29   14   83 1    
    30   15   16 1    
    31   15   84 1    
    32   15   85 1    
    33   16   17 1    
    34   17   18 1    
    35   17   86 1    
    36   17   87 1    
    37   18   19 1    
    38   18   37 1    
    39   18   88 1    
    40   19   20 am   BACKBONE|DICT|INTERRES
    41   19   89 1    
    42   20   21 2    
    43   20   22 1    
    44   22   23 1    
    45   22   24 1    
    46   22   90 1    
    47   23   91 1    
    48   23   92 1    
    49   23   93 1    
    50   24   25 am   BACKBONE|DICT|INTERRES
    51   24   94 1    
    52   25   26 2    
    53   25   27 1    
    54   27   28 1    
    55   27   29 1    
    56   27   95 1    
    57   28   96 1    
    58   28   97 1    
    59   28   98 1    
    60   29   30 am   BACKBONE|DICT|INTERRES
    61   29   99 1    
    62   30   31 2    
    63   30   32 1    
    64   32   33 1    
    65   32   34 1    
    66   32  100 1    
    67   33  101 1    
    68   33  102 1    
    69   33  103 1    
    70   34   35 am   BACKBONE|DICT|INTERRES
    71   34  104 1    
    72   35   36 2    
    73   37   38 2    
    74   37   39 am   BACKBONE|DICT|INTERRES
    75   39   40 1    
    76   39  105 1    
    77   40   41 1    
    78   40   42 1    
    79   40  106 1    
    80   41  107 1    
    81   41  108 1    
    82   41  109 1    
    83   42   43 2    
    84   42   44 am   BACKBONE|DICT|INTERRES
    85   44   45 1    
    86   44  110 1    
    87   45   46 1    
    88   45   47 1    
    89   45  111 1    
    90   46  112 1    
    91   46  113 1    
    92   46  114 1    
    93   47   48 2    
    94   47   49 am   BACKBONE|DICT|INTERRES
    95   49   50 1    
    96   49  115 1    
    97   50   51 1    
    98   50   52 1    
    99   50  116 1    
   100   51  117 1    
   101   51  118 1    
   102   51  119 1    
   103   52   53 2    
   104   52   54 am   BACKBONE|DICT|INTERRES
   105   54   55 1    
   106   54  120 1    
   107   55   56 1    
   108   55   57 1    
   109   55  121 1    
   110   56  122 1    
   111   56  123 1    
   112   56  124 1    
   113   57   58 2    
   114   57   59 am   BACKBONE|DICT|INTERRES
   115   59   60 1    
   116   59  125 1    
   117   60   61 1    
   118   60   62 1    
   119   60  126 1    
   120   61  127 1    
   121   61  128 1    
   122   61  129 1    
   123   62   63 2    
   124   62   64 am   BACKBONE|DICT|INTERRES
   125   64   65 1    
   126   64  130 1    
   127   65   66 1    
   128   65   69 1    
   129   65  131 1    
   130   66   67 am   BACKBONE|DICT|INTERRES
   131   66   68 2    
   132   67  132 1    
   133   67  133 1    
   134   69   70 1    
   135   69  134 1    
   136   69  135 1    
   137   70   71 1    
   138   71  136 1    
   139   71  137 1    
@<TRIPOS>SUBSTRUCTURE
     1 UNK         1 GROUP             0       ****    0 ROOT    
