@<TRIPOS>MOLECULE
3R136
137   139    1
SMALL
USER_CHARGES


@<TRIPOS>ATOM
      1 CA         30.0059   21.7050    4.8879 C.3       0 UNK        -0.1979 
      2 C          28.9389   21.3838    3.8517 C.2       0 UNK         0.4864 
      3 O          27.9529   20.7180    4.1716 O.2       0 UNK        -0.5359 
      4 N          29.1407   21.8415    2.6104 N.am      1 UNK        -0.4318 
      5 CA         28.2282   21.6746    1.4754 C.3       1 UNK         0.0824 
      6 C6         28.8378   22.1685    0.1342 C.3       12 UNK        -0.0944 
      7 S7         30.5797   21.7016   -0.1473 S.3       12 UNK        -0.2672 
      8 C8         31.3972   23.3329   -0.1246 C.3       12 UNK         0.0333 
      9 C9         31.6609   23.8248    1.2929 C.ar      12 UNK        -0.0807 
     10 C10        32.9225   23.6522    1.8679 C.ar      12 UNK        -0.0894 
     11 C11        33.1898   24.1300    3.1546 C.ar      12 UNK        -0.0804 
     12 C12        32.1728   24.7520    3.8833 C.ar      12 UNK        -0.0824 
     13 C13        30.9068   24.9325    3.3203 C.ar      12 UNK        -0.0762 
     14 C14        30.6616   24.4766    2.0218 C.ar      12 UNK        -0.0782 
     15 C15        29.8078   25.6134    4.1219 C.3       12 UNK         0.0230 
     16 S16        29.5059   27.3145    3.5463 S.3       12 UNK        -0.2608 
     17 C17        28.2862   27.0490    2.2142 C.3       12 UNK        -0.0989 
     18 CA         28.8615   27.3221    0.8005 C.3       5 UNK         0.0716 
     19 N          28.0858   26.6120   -0.2189 N.am      5 UNK        -0.4135 
     20 C          28.4132   26.5116   -1.5138 C.2       4 UNK         0.5031 
     21 O          29.4627   26.9509   -1.9857 O.2       4 UNK        -0.5229 
     22 CA         27.4262   25.7851   -2.4499 C.3       4 UNK         0.0329 
     23 CB         28.0592   24.5074   -3.0274 C.3       4 UNK        -0.2001 
     24 N          26.1420   25.4371   -1.8316 N.am      4 UNK        -0.4303 
     25 C          25.1352   26.2847   -1.5892 C.2       3 UNK         0.5044 
     26 O          25.1968   27.4909   -1.8259 O.2       3 UNK        -0.5152 
     27 CA         23.8379   25.7101   -0.9809 C.3       3 UNK         0.0319 
     28 CB         22.8743   25.2524   -2.0933 C.3       3 UNK        -0.2001 
     29 N          24.0059   24.6589    0.0391 N.am      3 UNK        -0.4354 
     30 C          24.5182   23.4276   -0.0974 C.2       2 UNK         0.4964 
     31 O          24.9932   22.9878   -1.1473 O.2       2 UNK        -0.5047 
     32 CA         24.5041   22.5281    1.1491 C.3       2 UNK         0.0288 
     33 CB         23.3715   21.4927    1.0577 C.3       2 UNK        -0.2113 
     34 N          25.7871   21.8355    1.2671 N.am      2 UNK        -0.4145 
     35 C          26.9036   22.4270    1.7087 C.2       1 UNK         0.5006 
     36 O          26.9283   23.5580    2.2031 O.2       1 UNK        -0.5103 
     37 C          28.9050   28.8374    0.5175 C.2       5 UNK         0.5055 
     38 O          27.8590   29.4285    0.2367 O.2       5 UNK        -0.5220 
     39 N          30.0905   29.4475    0.6551 N.am      6 UNK        -0.4450 
     40 CA         30.2613   30.9053    0.6513 C.3       6 UNK         0.0367 
     41 CB         31.7465   31.2649    0.4973 C.3       6 UNK        -0.1929 
     42 C          29.6752   31.5665    1.9117 C.2       6 UNK         0.5070 
     43 O          29.2393   32.7151    1.8392 O.2       6 UNK        -0.5237 
     44 N          29.6707   30.8296    3.0335 N.am      7 UNK        -0.4739 
     45 CA         29.0491   31.1042    4.3382 C.3       7 UNK         0.0276 
     46 CB         27.5195   31.2187    4.1998 C.3       7 UNK        -0.1927 
     47 C          29.6180   32.2964    5.1294 C.2       7 UNK         0.5013 
     48 O          29.6245   32.2428    6.3601 O.2       7 UNK        -0.5193 
     49 N          30.0961   33.3389    4.4423 N.am      8 UNK        -0.4253 
     50 CA         30.6802   34.5622    4.9991 C.3       8 UNK         0.0242 
     51 CB         30.6595   35.6529    3.9125 C.3       8 UNK        -0.2000 
     52 C          32.0895   34.3323    5.5809 C.2       8 UNK         0.4948 
     53 O          33.0592   34.9188    5.0977 O.2       8 UNK        -0.5275 
     54 N          32.1685   33.4659    6.6009 N.am      9 UNK        -0.4246 
     55 CA         33.3677   33.0395    7.3337 C.3       9 UNK         0.0261 
     56 CB         33.9494   34.2104    8.1551 C.3       9 UNK        -0.1959 
     57 C          34.4224   32.3507    6.4424 C.2       9 UNK         0.5033 
     58 O          35.6213   32.4804    6.6988 O.2       9 UNK        -0.5390 
     59 N          33.9627   31.6235    5.4177 N.am      10 UNK        -0.4215 
     60 CA         34.7846   30.9015    4.4536 C.3       10 UNK         0.0240 
     61 CB         35.2827   31.8690    3.3636 C.3       10 UNK        -0.1982 
     62 C          33.9541   29.7748    3.8344 C.2       10 UNK         0.4970 
     63 O          32.7245   29.8715    3.7976 O.2       10 UNK        -0.4916 
     64 N          34.6520   28.7490    3.3363 N.am      11 UNK        -0.4279 
     65 CA         34.0800   27.6374    2.5643 C.3       11 UNK         0.1003 
     66 C          33.5414   28.0916    1.1827 C.2       11 UNK         0.5709 
     67 N          34.3037   28.8691    0.4229 N.am      11 UNK        -0.7358 
     68 O          32.4167   27.7677    0.8128 O.2       11 UNK        -0.4999 
     69 C69        35.1018   26.4789    2.4137 C.3       12 UNK        -0.0954 
     70 S70        35.3858   25.6289    4.0051 S.3       12 UNK        -0.2268 
     71 C71        34.5908   24.0064    3.7390 C.3       12 UNK         0.0203 
     72 H72        30.2537   20.8138    5.4638 H         1 UNK         0.0888 
     73 H73        30.9227   22.0699    4.4246 H         1 UNK         0.0888 
     74 H74        29.6432   22.4680    5.5760 H         1 UNK         0.0888 
     75 H75        29.9772   22.3720    2.4087 H         1 UNK         0.3017 
     76 H76        28.0179   20.6064    1.3892 H         1 UNK         0.0873 
     77 H77        28.7514   23.2519    0.0400 H         1 UNK         0.0745 
     78 H78        28.2558   21.7648   -0.6965 H         1 UNK         0.0745 
     79 H79        30.8038   24.0644   -0.6759 H         1 UNK         0.0705 
     80 H80        32.3398   23.2503   -0.6680 H         1 UNK         0.0705 
     81 H81        33.7058   23.1664    1.3019 H         1 UNK         0.1334 
     82 H82        32.3796   25.1191    4.8795 H         1 UNK         0.1417 
     83 H83        29.6855   24.6232    1.5842 H         1 UNK         0.1562 
     84 H84        30.0852   25.6564    5.1762 H         1 UNK         0.0748 
     85 H85        28.8916   25.0222    4.0814 H         1 UNK         0.0748 
     86 H86        27.4114   27.6718    2.4143 H         1 UNK         0.0940 
     87 H87        27.9177   26.0254    2.2801 H         1 UNK         0.0940 
     88 H88        29.8785   26.9292    0.7474 H         1 UNK         0.0703 
     89 H89        27.1872   26.2547    0.0664 H         1 UNK         0.3081 
     90 H90        27.2268   26.4643   -3.2814 H         1 UNK         0.0719 
     91 H91        29.0018   24.7273   -3.5305 H         1 UNK         0.0809 
     92 H92        28.2685   23.7722   -2.2519 H         1 UNK         0.0809 
     93 H93        27.4047   24.0392   -3.7628 H         1 UNK         0.0809 
     94 H94        25.9669   24.4529   -1.6395 H         1 UNK         0.2990 
     95 H95        23.3563   26.5395   -0.4598 H         1 UNK         0.0690 
     96 H96        21.9164   24.9341   -1.6817 H         1 UNK         0.0788 
     97 H97        23.2825   24.4234   -2.6724 H         1 UNK         0.0788 
     98 H98        22.6719   26.0654   -2.7919 H         1 UNK         0.0788 
     99 H99        23.6753   24.9190    0.9587 H         1 UNK         0.2993 
    100 H100       24.3452   23.1403    2.0400 H         1 UNK         0.0949 
    101 H101       22.3996   21.9835    0.9892 H         1 UNK         0.0767 
    102 H102       23.4764   20.8534    0.1799 H         1 UNK         0.0767 
    103 H103       23.3487   20.8515    1.9392 H         1 UNK         0.0767 
    104 H104       25.8504   20.9292    0.8260 H         1 UNK         0.3013 
    105 H105       30.9165   28.8788    0.8353 H         1 UNK         0.3121 
    106 H106       29.7251   31.3072   -0.2110 H         1 UNK         0.0774 
    107 H107       31.8813   32.3460    0.4446 H         1 UNK         0.0815 
    108 H108       32.3389   30.9065    1.3385 H         1 UNK         0.0815 
    109 H109       32.1641   30.8421   -0.4160 H         1 UNK         0.0815 
    110 H110       30.1301   29.9293    2.9781 H         1 UNK         0.2987 
    111 H111       29.2549   30.2199    4.9438 H         1 UNK         0.0949 
    112 H112       27.0459   31.3238    5.1768 H         1 UNK         0.0806 
    113 H113       27.0983   30.3298    3.7295 H         1 UNK         0.0806 
    114 H114       27.2283   32.0838    3.6033 H         1 UNK         0.0806 
    115 H115       29.9992   33.2937    3.4311 H         1 UNK         0.3010 
    116 H116       30.0464   34.9013    5.8207 H         1 UNK         0.0829 
    117 H117       29.6449   35.8475    3.5657 H         1 UNK         0.0813 
    118 H118       31.0565   36.5945    4.2943 H         1 UNK         0.0813 
    119 H119       31.2599   35.3706    3.0472 H         1 UNK         0.0813 
    120 H120       31.2999   33.0060    6.8652 H         1 UNK         0.3038 
    121 H121       33.0339   32.2785    8.0402 H         1 UNK         0.0769 
    122 H122       34.7546   33.8704    8.8072 H         1 UNK         0.0811 
    123 H123       33.1904   34.6648    8.7916 H         1 UNK         0.0811 
    124 H124       34.3595   34.9901    7.5127 H         1 UNK         0.0811 
    125 H125       32.9658   31.5145    5.2823 H         1 UNK         0.3204 
    126 H126       35.6379   30.4583    4.9711 H         1 UNK         0.0748 
    127 H127       35.8939   31.3509    2.6237 H         1 UNK         0.0771 
    128 H128       34.4520   32.3363    2.8335 H         1 UNK         0.0771 
    129 H129       35.8952   32.6646    3.7878 H         1 UNK         0.0771 
    130 H130       35.6570   28.7525    3.4219 H         1 UNK         0.2980 
    131 H131       33.2182   27.2631    3.1201 H         1 UNK         0.0545 
    132 H132       33.9598   29.1645   -0.4761 H         1 UNK         0.3459 
    133 H133       35.2237   29.1460    0.7240 H         1 UNK         0.3459 
    134 H134       34.7719   25.7538    1.6689 H         1 UNK         0.0616 
    135 H135       36.0583   26.8556    2.0476 H         1 UNK         0.0616 
    136 H136       35.2303   23.4088    3.0876 H         1 UNK         0.0634 
    137 H137       34.5396   23.4761    4.6907 H         1 UNK         0.0634 
@<TRIPOS>BOND
     1    1    2 1    
     2    1   72 1    
     3    1   73 1    
     4    1   74 1    
     5    2    3 2    
     6    2    4 am   BACKBONE|DICT|INTERRES
     7    4    5 1    
     8    4   75 1    
     9    5    6 1    
    10    5   35 1    
    11    5   76 1    
    12    6    7 1    
    13    6   77 1    
    14    6   78 1    
    15    7    8 1    
    16    8    9 1    
    17    8   79 1    
    18    8   80 1    
    19    9   10 ar   
    20    9   14 ar   
    21   10   11 ar   
    22   10   81 1    
    23   11   12 ar   
    24   11   71 1    
    25   12   13 ar   
    26   12   82 1    
    27   13   14 ar   
    28   13   15 1    
    29   14   83 1    
    30   15   16 1    
    31   15   84 1    
    32   15   85 1    
    33   16   17 1    
    34   17   18 1    
    35   17   86 1    
    36   17   87 1    
    37   18   19 1    
    38   18   37 1    
    39   18   88 1    
    40   19   20 am   BACKBONE|DICT|INTERRES
    41   19   89 1    
    42   20   21 2    
    43   20   22 1    
    44   22   23 1    
    45   22   24 1    
    46   22   90 1    
    47   23   91 1    
    48   23   92 1    
    49   23   93 1    
    50   24   25 am   BACKBONE|DICT|INTERRES
    51   24   94 1    
    52   25   26 2    
    53   25   27 1    
    54   27   28 1    
    55   27   29 1    
    56   27   95 1    
    57   28   96 1    
    58   28   97 1    
    59   28   98 1    
    60   29   30 am   BACKBONE|DICT|INTERRES
    61   29   99 1    
    62   30   31 2    
    63   30   32 1    
    64   32   33 1    
    65   32   34 1    
    66   32  100 1    
    67   33  101 1    
    68   33  102 1    
    69   33  103 1    
    70   34   35 am   BACKBONE|DICT|INTERRES
    71   34  104 1    
    72   35   36 2    
    73   37   38 2    
    74   37   39 am   BACKBONE|DICT|INTERRES
    75   39   40 1    
    76   39  105 1    
    77   40   41 1    
    78   40   42 1    
    79   40  106 1    
    80   41  107 1    
    81   41  108 1    
    82   41  109 1    
    83   42   43 2    
    84   42   44 am   BACKBONE|DICT|INTERRES
    85   44   45 1    
    86   44  110 1    
    87   45   46 1    
    88   45   47 1    
    89   45  111 1    
    90   46  112 1    
    91   46  113 1    
    92   46  114 1    
    93   47   48 2    
    94   47   49 am   BACKBONE|DICT|INTERRES
    95   49   50 1    
    96   49  115 1    
    97   50   51 1    
    98   50   52 1    
    99   50  116 1    
   100   51  117 1    
   101   51  118 1    
   102   51  119 1    
   103   52   53 2    
   104   52   54 am   BACKBONE|DICT|INTERRES
   105   54   55 1    
   106   54  120 1    
   107   55   56 1    
   108   55   57 1    
   109   55  121 1    
   110   56  122 1    
   111   56  123 1    
   112   56  124 1    
   113   57   58 2    
   114   57   59 am   BACKBONE|DICT|INTERRES
   115   59   60 1    
   116   59  125 1    
   117   60   61 1    
   118   60   62 1    
   119   60  126 1    
   120   61  127 1    
   121   61  128 1    
   122   61  129 1    
   123   62   63 2    
   124   62   64 am   BACKBONE|DICT|INTERRES
   125   64   65 1    
   126   64  130 1    
   127   65   66 1    
   128   65   69 1    
   129   65  131 1    
   130   66   67 am   BACKBONE|DICT|INTERRES
   131   66   68 2    
   132   67  132 1    
   133   67  133 1    
   134   69   70 1    
   135   69  134 1    
   136   69  135 1    
   137   70   71 1    
   138   71  136 1    
   139   71  137 1    
@<TRIPOS>SUBSTRUCTURE
     1 UNK         1 GROUP             0       ****    0 ROOT    
