@<TRIPOS>MOLECULE
3R136
137   139    1
SMALL
USER_CHARGES


@<TRIPOS>ATOM
      1 CA         27.5357   21.9469    1.1893 C.3       0 UNK        -0.1979 
      2 C          28.4459   22.7203    0.2477 C.2       0 UNK         0.4864 
      3 O          28.1992   22.7426   -0.9598 O.2       0 UNK        -0.5359 
      4 N          29.4920   23.3612    0.7903 N.am      1 UNK        -0.4318 
      5 CA         30.4460   24.2027    0.0592 C.3       1 UNK         0.0824 
      6 C6         31.5574   24.7451    0.9887 C.3       12 UNK        -0.0944 
      7 S7         32.8882   23.5392    1.3024 S.3       12 UNK        -0.2672 
      8 C8         32.2111   22.4618    2.6090 C.3       12 UNK         0.0333 
      9 C9         31.6766   23.2086    3.8268 C.ar      12 UNK        -0.0807 
     10 C10        32.4527   24.1725    4.4817 C.ar      12 UNK        -0.0894 
     11 C11        31.9710   24.8159    5.6266 C.ar      12 UNK        -0.0804 
     12 C12        30.7018   24.4890    6.1150 C.ar      12 UNK        -0.0824 
     13 C13        29.9165   23.5275    5.4701 C.ar      12 UNK        -0.0762 
     14 C14        30.4110   22.8909    4.3292 C.ar      12 UNK        -0.0782 
     15 C15        28.5563   23.1362    6.0325 C.3       12 UNK         0.0230 
     16 S16        27.3633   24.5086    6.0009 S.3       12 UNK        -0.2608 
     17 C17        27.0795   24.7590    4.2080 C.3       12 UNK        -0.0989 
     18 CA         27.8596   25.9230    3.5098 C.3       5 UNK         0.0716 
     19 N          27.2426   26.3700    2.2549 N.am      5 UNK        -0.4135 
     20 C          26.0454   26.9604    2.1061 C.2       4 UNK         0.5031 
     21 O          25.2417   27.1291    3.0247 O.2       4 UNK        -0.5229 
     22 CA         25.6767   27.4584    0.7043 C.3       4 UNK         0.0329 
     23 CB         26.3779   28.7970    0.4154 C.3       4 UNK        -0.2001 
     24 N          26.0461   26.4897   -0.3268 N.am      4 UNK        -0.4303 
     25 C          25.1944   25.8836   -1.1668 C.2       3 UNK         0.5044 
     26 O          23.9714   26.0273   -1.1174 O.2       3 UNK        -0.5152 
     27 CA         25.8034   24.9578   -2.2457 C.3       3 UNK         0.0319 
     28 CB         24.9903   24.9558   -3.5578 C.3       3 UNK        -0.2001 
     29 N          27.2267   25.2150   -2.5044 N.am      3 UNK        -0.4354 
     30 C          27.7829   26.3532   -2.9575 C.2       2 UNK         0.4964 
     31 O          27.1311   27.3028   -3.3938 O.2       2 UNK        -0.5047 
     32 CA         29.3221   26.4767   -2.8674 C.3       2 UNK         0.0288 
     33 CB         29.7631   27.9141   -2.5130 C.3       2 UNK        -0.2113 
     34 N          29.9569   25.5159   -1.9511 N.am      2 UNK        -0.4145 
     35 C          29.7105   25.3614   -0.6409 C.2       1 UNK         0.5006 
     36 O          28.9045   26.0435    0.0008 O.2       1 UNK        -0.5103 
     37 C          28.2072   27.1322    4.4073 C.2       5 UNK         0.5055 
     38 O          29.3775   27.4908    4.5121 O.2       5 UNK        -0.5220 
     39 N          27.1928   27.7387    5.0341 N.am      6 UNK        -0.4450 
     40 CA         27.3182   28.8009    6.0304 C.3       6 UNK         0.0367 
     41 CB         26.0662   28.7817    6.9271 C.3       6 UNK        -0.1929 
     42 C          27.5667   30.1776    5.3876 C.2       6 UNK         0.5070 
     43 O          26.7138   31.0632    5.4765 O.2       6 UNK        -0.5237 
     44 N          28.7322   30.3403    4.7557 N.am      7 UNK        -0.4739 
     45 CA         29.2087   31.5955    4.1830 C.3       7 UNK         0.0276 
     46 CB         28.6882   31.7442    2.7414 C.3       7 UNK        -0.1927 
     47 C          30.7387   31.6057    4.2130 C.2       7 UNK         0.5013 
     48 O          31.3568   30.5593    4.0068 O.2       7 UNK        -0.5193 
     49 N          31.3346   32.7915    4.3971 N.am      8 UNK        -0.4253 
     50 CA         32.7894   32.9920    4.3642 C.3       8 UNK         0.0242 
     51 CB         33.1251   34.4333    4.7794 C.3       8 UNK        -0.2000 
     52 C          33.4082   32.6625    2.9944 C.2       8 UNK         0.4948 
     53 O          34.5021   32.1022    2.9407 O.2       8 UNK        -0.5275 
     54 N          32.6697   32.9640    1.9167 N.am      9 UNK        -0.4246 
     55 CA         33.0205   32.6142    0.5380 C.3       9 UNK         0.0261 
     56 CB         32.1067   33.3903   -0.4247 C.3       9 UNK        -0.1959 
     57 C          32.9451   31.1029    0.2465 C.2       9 UNK         0.5033 
     58 O          33.5946   30.6468   -0.6954 O.2       9 UNK        -0.5390 
     59 N          32.1599   30.3604    1.0397 N.am      10 UNK        -0.4215 
     60 CA         32.0448   28.9071    0.9615 C.3       10 UNK         0.0240 
     61 CB         30.6513   28.4669    1.4404 C.3       10 UNK        -0.1982 
     62 C          33.1634   28.2336    1.7679 C.2       10 UNK         0.4970 
     63 O          33.8976   27.4195    1.2078 O.2       10 UNK        -0.4916 
     64 N          33.2812   28.5880    3.0547 N.am      11 UNK        -0.4279 
     65 CA         34.2885   28.0245    3.9679 C.3       11 UNK         0.1003 
     66 C          35.7515   28.4528    3.6644 C.2       11 UNK         0.5709 
     67 N          36.0009   29.6226    3.0892 N.am      11 UNK        -0.7358 
     68 O          36.6801   27.7016    3.9528 O.2       11 UNK        -0.4999 
     69 C69        33.9418   28.2798    5.4564 C.3       12 UNK        -0.0954 
     70 S70        32.3480   27.5420    5.9406 S.3       12 UNK        -0.2268 
     71 C71        32.8323   25.8374    6.3572 C.3       12 UNK         0.0203 
     72 H72        26.5653   22.4379    1.2574 H         1 UNK         0.0888 
     73 H73        27.3803   20.9360    0.8133 H         1 UNK         0.0888 
     74 H74        27.9525   21.8713    2.1926 H         1 UNK         0.0888 
     75 H75        29.6339   23.3237    1.7871 H         1 UNK         0.3017 
     76 H76        30.9046   23.5785   -0.7109 H         1 UNK         0.0873 
     77 H77        31.1492   25.1164    1.9300 H         1 UNK         0.0745 
     78 H78        32.0522   25.6004    0.5256 H         1 UNK         0.0745 
     79 H79        31.4401   21.8286    2.1684 H         1 UNK         0.0705 
     80 H80        33.0007   21.7856    2.9392 H         1 UNK         0.0705 
     81 H81        33.4368   24.4134    4.1036 H         1 UNK         0.1334 
     82 H82        30.3255   24.9813    7.0015 H         1 UNK         0.1417 
     83 H83        29.8191   22.1235    3.8501 H         1 UNK         0.1562 
     84 H84        28.6849   22.8109    7.0657 H         1 UNK         0.0748 
     85 H85        28.1355   22.2838    5.4969 H         1 UNK         0.0748 
     86 H86        26.0052   24.9131    4.1079 H         1 UNK         0.0940 
     87 H87        27.2740   23.8250    3.6808 H         1 UNK         0.0940 
     88 H88        28.8250   25.5066    3.2164 H         1 UNK         0.0703 
     89 H89        27.8490   26.3066    1.4392 H         1 UNK         0.3081 
     90 H90        24.5989   27.6339    0.6949 H         1 UNK         0.0719 
     91 H91        26.1381   29.5393    1.1782 H         1 UNK         0.0809 
     92 H92        27.4627   28.6900    0.3918 H         1 UNK         0.0809 
     93 H93        26.0646   29.2051   -0.5457 H         1 UNK         0.0809 
     94 H94        27.0376   26.2934   -0.4239 H         1 UNK         0.2990 
     95 H95        25.7557   23.9501   -1.8305 H         1 UNK         0.0690 
     96 H96        25.4384   24.2966   -4.3012 H         1 UNK         0.0788 
     97 H97        24.9175   25.9530   -3.9927 H         1 UNK         0.0788 
     98 H98        23.9725   24.6031   -3.3868 H         1 UNK         0.0788 
     99 H99        27.8460   24.4853   -2.1668 H         1 UNK         0.2993 
    100 H100       29.7001   26.2476   -3.8650 H         1 UNK         0.0949 
    101 H101       29.3372   28.2444   -1.5653 H         1 UNK         0.0767 
    102 H102       30.8478   27.9919   -2.4382 H         1 UNK         0.0767 
    103 H103       29.4418   28.6237   -3.2765 H         1 UNK         0.0767 
    104 H104       30.6134   24.8822   -2.3872 H         1 UNK         0.3013 
    105 H105       26.2542   27.4516    4.7781 H         1 UNK         0.3121 
    106 H106       28.1802   28.5814    6.6646 H         1 UNK         0.0774 
    107 H107       26.1297   29.5449    7.7038 H         1 UNK         0.0815 
    108 H108       25.1567   28.9710    6.3554 H         1 UNK         0.0815 
    109 H109       25.9534   27.8200    7.4281 H         1 UNK         0.0815 
    110 H110       29.3803   29.5564    4.7046 H         1 UNK         0.2987 
    111 H111       28.8458   32.4293    4.7885 H         1 UNK         0.0949 
    112 H112       27.5987   31.7735    2.7161 H         1 UNK         0.0806 
    113 H113       29.0454   32.6685    2.2858 H         1 UNK         0.0806 
    114 H114       29.0113   30.9185    2.1071 H         1 UNK         0.0806 
    115 H115       30.7646   33.6104    4.5567 H         1 UNK         0.3010 
    116 H116       33.2348   32.3127    5.0947 H         1 UNK         0.0829 
    117 H117       32.6844   35.1651    4.1012 H         1 UNK         0.0813 
    118 H118       34.2038   34.5970    4.7788 H         1 UNK         0.0813 
    119 H119       32.7680   34.6497    5.7864 H         1 UNK         0.0813 
    120 H120       31.7901   33.4390    2.0570 H         1 UNK         0.3038 
    121 H121       34.0515   32.9291    0.3619 H         1 UNK         0.0769 
    122 H122       32.2053   34.4671   -0.2857 H         1 UNK         0.0811 
    123 H123       31.0571   33.1268   -0.2878 H         1 UNK         0.0811 
    124 H124       32.3629   33.1757   -1.4633 H         1 UNK         0.0811 
    125 H125       31.7208   30.8005    1.8368 H         1 UNK         0.3204 
    126 H126       32.1478   28.5908   -0.0791 H         1 UNK         0.0748 
    127 H127       30.5777   27.3831    1.4887 H         1 UNK         0.0771 
    128 H128       30.4167   28.8350    2.4366 H         1 UNK         0.0771 
    129 H129       29.8729   28.8172    0.7641 H         1 UNK         0.0771 
    130 H130       32.6234   29.2506    3.4576 H         1 UNK         0.2980 
    131 H131       34.2659   26.9426    3.8214 H         1 UNK         0.0545 
    132 H132       35.2651   30.3012    2.9222 H         1 UNK         0.3459 
    133 H133       36.9564   29.8751    2.8966 H         1 UNK         0.3459 
    134 H134       33.8887   29.3529    5.6493 H         1 UNK         0.0616 
    135 H135       34.7193   27.8910    6.1168 H         1 UNK         0.0616 
    136 H136       33.8846   25.6723    6.1220 H         1 UNK         0.0634 
    137 H137       32.7377   25.6979    7.4350 H         1 UNK         0.0634 
@<TRIPOS>BOND
     1    1    2 1    
     2    1   72 1    
     3    1   73 1    
     4    1   74 1    
     5    2    3 2    
     6    2    4 am   BACKBONE|DICT|INTERRES
     7    4    5 1    
     8    4   75 1    
     9    5    6 1    
    10    5   35 1    
    11    5   76 1    
    12    6    7 1    
    13    6   77 1    
    14    6   78 1    
    15    7    8 1    
    16    8    9 1    
    17    8   79 1    
    18    8   80 1    
    19    9   10 ar   
    20    9   14 ar   
    21   10   11 ar   
    22   10   81 1    
    23   11   12 ar   
    24   11   71 1    
    25   12   13 ar   
    26   12   82 1    
    27   13   14 ar   
    28   13   15 1    
    29   14   83 1    
    30   15   16 1    
    31   15   84 1    
    32   15   85 1    
    33   16   17 1    
    34   17   18 1    
    35   17   86 1    
    36   17   87 1    
    37   18   19 1    
    38   18   37 1    
    39   18   88 1    
    40   19   20 am   BACKBONE|DICT|INTERRES
    41   19   89 1    
    42   20   21 2    
    43   20   22 1    
    44   22   23 1    
    45   22   24 1    
    46   22   90 1    
    47   23   91 1    
    48   23   92 1    
    49   23   93 1    
    50   24   25 am   BACKBONE|DICT|INTERRES
    51   24   94 1    
    52   25   26 2    
    53   25   27 1    
    54   27   28 1    
    55   27   29 1    
    56   27   95 1    
    57   28   96 1    
    58   28   97 1    
    59   28   98 1    
    60   29   30 am   BACKBONE|DICT|INTERRES
    61   29   99 1    
    62   30   31 2    
    63   30   32 1    
    64   32   33 1    
    65   32   34 1    
    66   32  100 1    
    67   33  101 1    
    68   33  102 1    
    69   33  103 1    
    70   34   35 am   BACKBONE|DICT|INTERRES
    71   34  104 1    
    72   35   36 2    
    73   37   38 2    
    74   37   39 am   BACKBONE|DICT|INTERRES
    75   39   40 1    
    76   39  105 1    
    77   40   41 1    
    78   40   42 1    
    79   40  106 1    
    80   41  107 1    
    81   41  108 1    
    82   41  109 1    
    83   42   43 2    
    84   42   44 am   BACKBONE|DICT|INTERRES
    85   44   45 1    
    86   44  110 1    
    87   45   46 1    
    88   45   47 1    
    89   45  111 1    
    90   46  112 1    
    91   46  113 1    
    92   46  114 1    
    93   47   48 2    
    94   47   49 am   BACKBONE|DICT|INTERRES
    95   49   50 1    
    96   49  115 1    
    97   50   51 1    
    98   50   52 1    
    99   50  116 1    
   100   51  117 1    
   101   51  118 1    
   102   51  119 1    
   103   52   53 2    
   104   52   54 am   BACKBONE|DICT|INTERRES
   105   54   55 1    
   106   54  120 1    
   107   55   56 1    
   108   55   57 1    
   109   55  121 1    
   110   56  122 1    
   111   56  123 1    
   112   56  124 1    
   113   57   58 2    
   114   57   59 am   BACKBONE|DICT|INTERRES
   115   59   60 1    
   116   59  125 1    
   117   60   61 1    
   118   60   62 1    
   119   60  126 1    
   120   61  127 1    
   121   61  128 1    
   122   61  129 1    
   123   62   63 2    
   124   62   64 am   BACKBONE|DICT|INTERRES
   125   64   65 1    
   126   64  130 1    
   127   65   66 1    
   128   65   69 1    
   129   65  131 1    
   130   66   67 am   BACKBONE|DICT|INTERRES
   131   66   68 2    
   132   67  132 1    
   133   67  133 1    
   134   69   70 1    
   135   69  134 1    
   136   69  135 1    
   137   70   71 1    
   138   71  136 1    
   139   71  137 1    
@<TRIPOS>SUBSTRUCTURE
     1 UNK         1 GROUP             0       ****    0 ROOT    
