@<TRIPOS>MOLECULE
3R136
137   139    1
SMALL
USER_CHARGES


@<TRIPOS>ATOM
      1 CA         26.2352   17.8428   -1.9448 C.3       0 UNK        -0.1979 
      2 C          27.3891   18.8343   -1.9086 C.2       0 UNK         0.4864 
      3 O          28.3216   18.7169   -2.7057 O.2       0 UNK        -0.5359 
      4 N          27.3378   19.8023   -0.9848 N.am      1 UNK        -0.4318 
      5 CA         28.3324   20.8692   -0.8307 C.3       1 UNK         0.0824 
      6 C6         28.1809   21.6063    0.5222 C.3       12 UNK        -0.0944 
      7 S7         28.3925   20.5019    1.9587 S.3       12 UNK        -0.2672 
      8 C8         30.1226   20.8265    2.4288 C.3       12 UNK         0.0333 
      9 C9         30.2989   22.1875    3.0898 C.ar      12 UNK        -0.0807 
     10 C10        30.8656   23.2524    2.3802 C.ar      12 UNK        -0.0894 
     11 C11        31.0446   24.4944    2.9953 C.ar      12 UNK        -0.0804 
     12 C12        30.6856   24.6584    4.3336 C.ar      12 UNK        -0.0824 
     13 C13        30.0841   23.6180    5.0428 C.ar      12 UNK        -0.0762 
     14 C14        29.9010   22.3797    4.4178 C.ar      12 UNK        -0.0782 
     15 C15        29.6133   23.8383    6.4725 C.3       12 UNK         0.0230 
     16 S16        27.8679   24.3626    6.5040 S.3       12 UNK        -0.2608 
     17 C17        27.9705   26.1685    6.7792 C.3       12 UNK        -0.0989 
     18 CA         28.1756   27.0155    5.4950 C.3       5 UNK         0.0716 
     19 N          27.2771   26.6388    4.4026 N.am      5 UNK        -0.4135 
     20 C          27.3718   27.1007    3.1497 C.2       4 UNK         0.5031 
     21 O          28.2194   27.9192    2.7798 O.2       4 UNK        -0.5229 
     22 CA         26.3237   26.5742    2.1536 C.3       4 UNK         0.0329 
     23 CB         24.9896   27.3233    2.3119 C.3       4 UNK        -0.2001 
     24 N          26.7891   26.7036    0.7708 N.am      4 UNK        -0.4303 
     25 C          27.7374   25.9294    0.2314 C.2       3 UNK         0.5044 
     26 O          28.2429   24.9594    0.8012 O.2       3 UNK        -0.5152 
     27 CA         28.2109   26.3035   -1.1770 C.3       3 UNK         0.0319 
     28 CB         29.2258   27.4606   -1.1313 C.3       3 UNK        -0.2001 
     29 N          28.8315   25.1211   -1.7617 N.am      3 UNK        -0.4354 
     30 C          28.9126   24.8260   -3.0628 C.2       2 UNK         0.4964 
     31 O          28.5278   25.5756   -3.9610 O.2       2 UNK        -0.5047 
     32 CA         29.5248   23.4605   -3.4310 C.3       2 UNK         0.0288 
     33 CB         31.0084   23.6228   -3.8020 C.3       2 UNK        -0.2113 
     34 N          29.4028   22.4500   -2.3726 N.am      2 UNK        -0.4145 
     35 C          28.2500   21.8764   -1.9971 C.2       1 UNK         0.5006 
     36 O          27.1569   22.1390   -2.5071 O.2       1 UNK        -0.5103 
     37 C          28.0654   28.5226    5.7965 C.2       5 UNK         0.5055 
     38 O          26.9813   28.9857    6.1589 O.2       5 UNK        -0.5220 
     39 N          29.1813   29.2458    5.6243 N.am      6 UNK        -0.4450 
     40 CA         29.3209   30.6982    5.7798 C.3       6 UNK         0.0367 
     41 CB         29.1023   31.1262    7.2471 C.3       6 UNK        -0.1929 
     42 C          28.4771   31.5128    4.7776 C.2       6 UNK         0.5070 
     43 O          28.0141   32.6046    5.1119 O.2       6 UNK        -0.5237 
     44 N          28.3205   30.9949    3.5486 N.am      7 UNK        -0.4739 
     45 CA         27.7049   31.7087    2.4198 C.3       7 UNK         0.0276 
     46 CB         27.4334   30.7156    1.2790 C.3       7 UNK        -0.1927 
     47 C          28.5519   32.8885    1.9010 C.2       7 UNK         0.5013 
     48 O          28.0157   33.7700    1.2281 O.2       7 UNK        -0.5193 
     49 N          29.8489   32.8813    2.2206 N.am      8 UNK        -0.4253 
     50 CA         30.8282   33.9232    1.9410 C.3       8 UNK         0.0242 
     51 CB         31.5190   33.6228    0.5965 C.3       8 UNK        -0.2000 
     52 C          31.8257   33.9582    3.1092 C.2       8 UNK         0.4948 
     53 O          31.6915   33.1754    4.0550 O.2       8 UNK        -0.5275 
     54 N          32.8175   34.8564    3.0237 N.am      9 UNK        -0.4246 
     55 CA         33.9137   34.9731    3.9943 C.3       9 UNK         0.0261 
     56 CB         34.7337   36.2386    3.6945 C.3       9 UNK        -0.1959 
     57 C          34.8264   33.7320    4.0320 C.2       9 UNK         0.5033 
     58 O          35.3347   33.3869    5.1000 O.2       9 UNK        -0.5390 
     59 N          34.9961   33.0772    2.8764 N.am      10 UNK        -0.4215 
     60 CA         35.6166   31.7611    2.7489 C.3       10 UNK         0.0240 
     61 CB         36.3435   31.6735    1.3968 C.3       10 UNK        -0.1982 
     62 C          34.5242   30.6869    2.8434 C.2       10 UNK         0.4970 
     63 O          33.4358   30.8837    2.2981 O.2       10 UNK        -0.4916 
     64 N          34.8446   29.5665    3.5017 N.am      11 UNK        -0.4279 
     65 CA         33.9320   28.4337    3.7369 C.3       11 UNK         0.1003 
     66 C          32.7596   28.7578    4.7182 C.2       11 UNK         0.5709 
     67 N          32.9397   29.6939    5.6430 N.am      11 UNK        -0.7358 
     68 O          31.6879   28.1569    4.6706 O.2       11 UNK        -0.4999 
     69 C69        33.5001   27.7428    2.4075 C.3       12 UNK        -0.0954 
     70 S70        33.3546   25.9332    2.5783 S.3       12 UNK        -0.2268 
     71 C71        31.5913   25.6807    2.2218 C.3       12 UNK         0.0203 
     72 H72        25.4909   18.0553   -1.1775 H         1 UNK         0.0888 
     73 H73        25.7411   17.8780   -2.9154 H         1 UNK         0.0888 
     74 H74        26.6053   16.8302   -1.7865 H         1 UNK         0.0888 
     75 H75        26.5454   19.8552   -0.3613 H         1 UNK         0.3017 
     76 H76        29.3204   20.4037   -0.8576 H         1 UNK         0.0873 
     77 H77        28.9014   22.4202    0.5956 H         1 UNK         0.0745 
     78 H78        27.1975   22.0750    0.5974 H         1 UNK         0.0745 
     79 H79        30.4482   20.0482    3.1205 H         1 UNK         0.0705 
     80 H80        30.7614   20.7352    1.5489 H         1 UNK         0.0705 
     81 H81        31.1578   23.1206    1.3478 H         1 UNK         0.1334 
     82 H82        30.8679   25.6078    4.8133 H         1 UNK         0.1417 
     83 H83        29.4396   21.5662    4.9613 H         1 UNK         0.1562 
     84 H84        30.2447   24.5700    6.9786 H         1 UNK         0.0748 
     85 H85        29.7115   22.9107    7.0385 H         1 UNK         0.0748 
     86 H86        28.7635   26.3754    7.5003 H         1 UNK         0.0940 
     87 H87        27.0420   26.4606    7.2744 H         1 UNK         0.0940 
     88 H88        29.1851   26.8343    5.1365 H         1 UNK         0.0703 
     89 H89        26.5502   25.9792    4.6366 H         1 UNK         0.3081 
     90 H90        26.1539   25.5153    2.3621 H         1 UNK         0.0719 
     91 H91        25.0942   28.3910    2.1208 H         1 UNK         0.0809 
     92 H92        24.2337   26.9338    1.6297 H         1 UNK         0.0809 
     93 H93        24.5955   27.2139    3.3232 H         1 UNK         0.0809 
     94 H94        26.4545   27.5017    0.2519 H         1 UNK         0.2990 
     95 H95        27.3421   26.5920   -1.7727 H         1 UNK         0.0690 
     96 H96        29.5750   27.7234   -2.1299 H         1 UNK         0.0788 
     97 H97        30.0976   27.2059   -0.5270 H         1 UNK         0.0788 
     98 H98        28.7800   28.3564   -0.6980 H         1 UNK         0.0788 
     99 H99        29.1209   24.4370   -1.0741 H         1 UNK         0.2993 
    100 H100       28.9900   23.0939   -4.3103 H         1 UNK         0.0949 
    101 H101       31.4372   22.6815   -4.1468 H         1 UNK         0.0767 
    102 H102       31.1317   24.3469   -4.6088 H         1 UNK         0.0767 
    103 H103       31.6008   23.9740   -2.9561 H         1 UNK         0.0767 
    104 H104       30.2589   22.1784   -1.9104 H         1 UNK         0.3013 
    105 H105       30.0119   28.7683    5.2759 H         1 UNK         0.3121 
    106 H106       30.3570   30.9280    5.5286 H         1 UNK         0.0774 
    107 H107       29.3617   32.1761    7.3892 H         1 UNK         0.0815 
    108 H108       28.0632   31.0058    7.5547 H         1 UNK         0.0815 
    109 H109       29.7244   30.5459    7.9281 H         1 UNK         0.0815 
    110 H110       28.6651   30.0595    3.3617 H         1 UNK         0.2987 
    111 H111       26.7496   32.1182    2.7554 H         1 UNK         0.0949 
    112 H112       28.3517   30.2389    0.9342 H         1 UNK         0.0806 
    113 H113       26.7479   29.9317    1.5950 H         1 UNK         0.0806 
    114 H114       26.9796   31.2141    0.4213 H         1 UNK         0.0806 
    115 H115       30.1881   32.1598    2.8445 H         1 UNK         0.3010 
    116 H116       30.3297   34.8938    1.8943 H         1 UNK         0.0829 
    117 H117       30.7916   33.5497   -0.2124 H         1 UNK         0.0813 
    118 H118       32.2221   34.4091    0.3211 H         1 UNK         0.0813 
    119 H119       32.0716   32.6827    0.6309 H         1 UNK         0.0813 
    120 H120       32.8442   35.4816    2.2306 H         1 UNK         0.3038 
    121 H121       33.4695   35.0816    4.9862 H         1 UNK         0.0769 
    122 H122       34.1159   37.1351    3.7502 H         1 UNK         0.0811 
    123 H123       35.1877   36.2029    2.7033 H         1 UNK         0.0811 
    124 H124       35.5414   36.3592    4.4180 H         1 UNK         0.0811 
    125 H125       34.4854   33.4054    2.0702 H         1 UNK         0.3204 
    126 H126       36.3463   31.6124    3.5480 H         1 UNK         0.0748 
    127 H127       37.1160   32.4382    1.3126 H         1 UNK         0.0771 
    128 H128       36.8320   30.7053    1.2784 H         1 UNK         0.0771 
    129 H129       35.6568   31.7968    0.5580 H         1 UNK         0.0771 
    130 H130       35.7623   29.4833    3.9152 H         1 UNK         0.2980 
    131 H131       34.5457   27.7207    4.2883 H         1 UNK         0.0545 
    132 H132       33.8079   30.2021    5.6934 H         1 UNK         0.3459 
    133 H133       32.2052   29.8926    6.3007 H         1 UNK         0.3459 
    134 H134       34.2531   27.9090    1.6356 H         1 UNK         0.0616 
    135 H135       32.5813   28.1807    2.0136 H         1 UNK         0.0616 
    136 H136       31.4541   25.5423    1.1483 H         1 UNK         0.0634 
    137 H137       31.0157   26.5679    2.4916 H         1 UNK         0.0634 
@<TRIPOS>BOND
     1    1    2 1    
     2    1   72 1    
     3    1   73 1    
     4    1   74 1    
     5    2    3 2    
     6    2    4 am   BACKBONE|DICT|INTERRES
     7    4    5 1    
     8    4   75 1    
     9    5    6 1    
    10    5   35 1    
    11    5   76 1    
    12    6    7 1    
    13    6   77 1    
    14    6   78 1    
    15    7    8 1    
    16    8    9 1    
    17    8   79 1    
    18    8   80 1    
    19    9   10 ar   
    20    9   14 ar   
    21   10   11 ar   
    22   10   81 1    
    23   11   12 ar   
    24   11   71 1    
    25   12   13 ar   
    26   12   82 1    
    27   13   14 ar   
    28   13   15 1    
    29   14   83 1    
    30   15   16 1    
    31   15   84 1    
    32   15   85 1    
    33   16   17 1    
    34   17   18 1    
    35   17   86 1    
    36   17   87 1    
    37   18   19 1    
    38   18   37 1    
    39   18   88 1    
    40   19   20 am   BACKBONE|DICT|INTERRES
    41   19   89 1    
    42   20   21 2    
    43   20   22 1    
    44   22   23 1    
    45   22   24 1    
    46   22   90 1    
    47   23   91 1    
    48   23   92 1    
    49   23   93 1    
    50   24   25 am   BACKBONE|DICT|INTERRES
    51   24   94 1    
    52   25   26 2    
    53   25   27 1    
    54   27   28 1    
    55   27   29 1    
    56   27   95 1    
    57   28   96 1    
    58   28   97 1    
    59   28   98 1    
    60   29   30 am   BACKBONE|DICT|INTERRES
    61   29   99 1    
    62   30   31 2    
    63   30   32 1    
    64   32   33 1    
    65   32   34 1    
    66   32  100 1    
    67   33  101 1    
    68   33  102 1    
    69   33  103 1    
    70   34   35 am   BACKBONE|DICT|INTERRES
    71   34  104 1    
    72   35   36 2    
    73   37   38 2    
    74   37   39 am   BACKBONE|DICT|INTERRES
    75   39   40 1    
    76   39  105 1    
    77   40   41 1    
    78   40   42 1    
    79   40  106 1    
    80   41  107 1    
    81   41  108 1    
    82   41  109 1    
    83   42   43 2    
    84   42   44 am   BACKBONE|DICT|INTERRES
    85   44   45 1    
    86   44  110 1    
    87   45   46 1    
    88   45   47 1    
    89   45  111 1    
    90   46  112 1    
    91   46  113 1    
    92   46  114 1    
    93   47   48 2    
    94   47   49 am   BACKBONE|DICT|INTERRES
    95   49   50 1    
    96   49  115 1    
    97   50   51 1    
    98   50   52 1    
    99   50  116 1    
   100   51  117 1    
   101   51  118 1    
   102   51  119 1    
   103   52   53 2    
   104   52   54 am   BACKBONE|DICT|INTERRES
   105   54   55 1    
   106   54  120 1    
   107   55   56 1    
   108   55   57 1    
   109   55  121 1    
   110   56  122 1    
   111   56  123 1    
   112   56  124 1    
   113   57   58 2    
   114   57   59 am   BACKBONE|DICT|INTERRES
   115   59   60 1    
   116   59  125 1    
   117   60   61 1    
   118   60   62 1    
   119   60  126 1    
   120   61  127 1    
   121   61  128 1    
   122   61  129 1    
   123   62   63 2    
   124   62   64 am   BACKBONE|DICT|INTERRES
   125   64   65 1    
   126   64  130 1    
   127   65   66 1    
   128   65   69 1    
   129   65  131 1    
   130   66   67 am   BACKBONE|DICT|INTERRES
   131   66   68 2    
   132   67  132 1    
   133   67  133 1    
   134   69   70 1    
   135   69  134 1    
   136   69  135 1    
   137   70   71 1    
   138   71  136 1    
   139   71  137 1    
@<TRIPOS>SUBSTRUCTURE
     1 UNK         1 GROUP             0       ****    0 ROOT    
