@<TRIPOS>MOLECULE
3R136
137   139    1
SMALL
USER_CHARGES


@<TRIPOS>ATOM
      1 CA         27.0516   21.7166    0.3743 C.3       0 UNK        -0.1979 
      2 C          27.4938   22.4585   -0.8768 C.2       0 UNK         0.4864 
      3 O          27.6635   21.8408   -1.9292 O.2       0 UNK        -0.5359 
      4 N          27.6828   23.7770   -0.7656 N.am      1 UNK        -0.4318 
      5 CA         28.2046   24.6414   -1.8240 C.3       1 UNK         0.0824 
      6 C6         29.7565   24.7371   -1.7623 C.3       12 UNK        -0.0944 
      7 S7         30.4011   25.1864   -0.1113 S.3       12 UNK        -0.2672 
      8 C8         31.7914   24.0332    0.0793 C.3       12 UNK         0.0333 
      9 C9         32.4668   24.2860    1.4146 C.ar      12 UNK        -0.0807 
     10 C10        33.3593   25.3521    1.5528 C.ar      12 UNK        -0.0894 
     11 C11        33.8817   25.6815    2.8054 C.ar      12 UNK        -0.0804 
     12 C12        33.5368   24.9100    3.9182 C.ar      12 UNK        -0.0824 
     13 C13        32.6554   23.8324    3.7887 C.ar      12 UNK        -0.0762 
     14 C14        32.1382   23.5115    2.5301 C.ar      12 UNK        -0.0782 
     15 C15        32.2112   23.0615    5.0238 C.3       12 UNK         0.0230 
     16 S16        30.4185   23.2148    5.3353 S.3       12 UNK        -0.2608 
     17 C17        30.1261   25.0150    5.1873 C.3       12 UNK        -0.0989 
     18 CA         29.3225   25.3617    3.9050 C.3       5 UNK         0.0716 
     19 N          27.9912   24.7523    3.9501 N.am      5 UNK        -0.4135 
     20 C          27.1563   24.6028    2.9166 C.2       4 UNK         0.5031 
     21 O          27.4378   24.9221    1.7596 O.2       4 UNK        -0.5229 
     22 CA         25.7941   23.9363    3.2019 C.3       4 UNK         0.0329 
     23 CB         25.3382   24.0279    4.6770 C.3       4 UNK        -0.2001 
     24 N          24.7559   24.4322    2.2914 N.am      4 UNK        -0.4303 
     25 C          24.2862   25.6846    2.2099 C.2       3 UNK         0.5044 
     26 O          24.5994   26.5961    2.9776 O.2       3 UNK        -0.5152 
     27 CA         23.3259   25.9603    1.0396 C.3       3 UNK         0.0319 
     28 CB         22.6018   27.3132    1.1744 C.3       3 UNK        -0.2001 
     29 N          24.0480   25.9371   -0.2332 N.am      3 UNK        -0.4354 
     30 C          24.3838   24.8328   -0.9161 C.2       2 UNK         0.4964 
     31 O          24.1069   23.6923   -0.5438 O.2       2 UNK        -0.5047 
     32 CA         25.1814   25.0322   -2.2149 C.3       2 UNK         0.0288 
     33 CB         24.2308   25.3804   -3.3721 C.3       2 UNK        -0.2113 
     34 N          26.1681   26.1060   -2.0620 N.am      2 UNK        -0.4145 
     35 C          27.4881   26.0160   -1.8300 C.2       1 UNK         0.5006 
     36 O          28.1449   27.0399   -1.6506 O.2       1 UNK        -0.5103 
     37 C          29.1831   26.8833    3.7007 C.2       5 UNK         0.5055 
     38 O          29.0222   27.6084    4.6844 O.2       5 UNK        -0.5220 
     39 N          29.1735   27.3318    2.4376 N.am      6 UNK        -0.4450 
     40 CA         28.7700   28.6899    2.0646 C.3       6 UNK         0.0367 
     41 CB         27.2355   28.7307    1.9059 C.3       6 UNK        -0.1929 
     42 C          29.4948   29.2321    0.8205 C.2       6 UNK         0.5070 
     43 O          28.9811   30.1604    0.1935 O.2       6 UNK        -0.5237 
     44 N          30.6742   28.6887    0.4794 N.am      7 UNK        -0.4739 
     45 CA         31.4736   29.1489   -0.6686 C.3       7 UNK         0.0276 
     46 CB         32.6073   28.1534   -0.9587 C.3       7 UNK        -0.1927 
     47 C          32.0540   30.5652   -0.4902 C.2       7 UNK         0.5013 
     48 O          32.2872   31.2554   -1.4837 O.2       7 UNK        -0.5193 
     49 N          32.2700   30.9680    0.7648 N.am      8 UNK        -0.4253 
     50 CA         32.7402   32.2780    1.1946 C.3       8 UNK         0.0242 
     51 CB         34.2762   32.3379    1.0928 C.3       8 UNK        -0.2000 
     52 C          32.2775   32.4836    2.6403 C.2       8 UNK         0.4948 
     53 O          31.9142   31.5112    3.3070 O.2       8 UNK        -0.5275 
     54 N          32.3482   33.7295    3.1290 N.am      9 UNK        -0.4246 
     55 CA         32.0167   34.0968    4.5141 C.3       9 UNK         0.0261 
     56 CB         32.1066   35.6228    4.6756 C.3       9 UNK        -0.1959 
     57 C          32.8896   33.3896    5.5700 C.2       9 UNK         0.5033 
     58 O          32.4162   33.1314    6.6774 O.2       9 UNK        -0.5390 
     59 N          34.1303   33.0513    5.1914 N.am      10 UNK        -0.4215 
     60 CA         35.0784   32.2672    5.9847 C.3       10 UNK         0.0240 
     61 CB         36.4589   32.3267    5.3096 C.3       10 UNK        -0.1982 
     62 C          34.6556   30.8014    6.2067 C.2       10 UNK         0.4970 
     63 O          35.1724   30.1753    7.1331 O.2       10 UNK        -0.4916 
     64 N          33.7470   30.2741    5.3730 N.am      11 UNK        -0.4279 
     65 CA         33.2143   28.9077    5.4894 C.3       11 UNK         0.1003 
     66 C          32.1793   28.7233    6.6371 C.2       11 UNK         0.5709 
     67 N          31.6646   29.7838    7.2509 N.am      11 UNK        -0.7358 
     68 O          31.8574   27.5927    6.9930 O.2       11 UNK        -0.4999 
     69 C69        32.6503   28.3842    4.1432 C.3       12 UNK        -0.0954 
     70 S70        33.8565   28.4624    2.7743 S.3       12 UNK        -0.2268 
     71 C71        34.7781   26.9004    2.9651 C.3       12 UNK         0.0203 
     72 H72        27.2256   20.6460    0.2685 H         1 UNK         0.0888 
     73 H73        27.6085   22.0605    1.2451 H         1 UNK         0.0888 
     74 H74        25.9881   21.8735    0.5506 H         1 UNK         0.0888 
     75 H75        27.5521   24.2373    0.1374 H         1 UNK         0.3017 
     76 H76        27.9627   24.2040   -2.7946 H         1 UNK         0.0873 
     77 H77        30.1353   25.4525   -2.4945 H         1 UNK         0.0745 
     78 H78        30.1793   23.7738   -2.0514 H         1 UNK         0.0745 
     79 H79        31.4295   23.0058    0.0150 H         1 UNK         0.0705 
     80 H80        32.5023   24.1738   -0.7364 H         1 UNK         0.0705 
     81 H81        33.6082   25.9567    0.6931 H         1 UNK         0.1334 
     82 H82        33.9235   25.1747    4.8931 H         1 UNK         0.1417 
     83 H83        31.4310   22.6986    2.4339 H         1 UNK         0.1562 
     84 H84        32.7486   23.4043    5.9095 H         1 UNK         0.0748 
     85 H85        32.4626   22.0073    4.9007 H         1 UNK         0.0748 
     86 H86        31.0776   25.5465    5.2074 H         1 UNK         0.0940 
     87 H87        29.5922   25.3483    6.0794 H         1 UNK         0.0940 
     88 H88        29.8550   24.9577    3.0427 H         1 UNK         0.0703 
     89 H89        27.6780   24.4605    4.8633 H         1 UNK         0.3081 
     90 H90        25.9190   22.8792    2.9659 H         1 UNK         0.0719 
     91 H91        24.3377   23.6142    4.8040 H         1 UNK         0.0809 
     92 H92        25.3167   25.0573    5.0372 H         1 UNK         0.0809 
     93 H93        25.9973   23.4597    5.3344 H         1 UNK         0.0809 
     94 H94        24.4773   23.7974    1.5515 H         1 UNK         0.2990 
     95 H95        22.5663   25.1753    1.0386 H         1 UNK         0.0690 
     96 H96        21.8863   27.4621    0.3655 H         1 UNK         0.0788 
     97 H97        23.3002   28.1512    1.1635 H         1 UNK         0.0788 
     98 H98        22.0454   27.3650    2.1113 H         1 UNK         0.0788 
     99 H99        24.3456   26.8337   -0.5854 H         1 UNK         0.2993 
    100 H100       25.6602   24.0872   -2.4697 H         1 UNK         0.0949 
    101 H101       23.4848   24.5967   -3.5127 H         1 UNK         0.0767 
    102 H102       23.6941   26.3135   -3.1956 H         1 UNK         0.0767 
    103 H103       24.7739   25.4804   -4.3123 H         1 UNK         0.0767 
    104 H104       25.7930   27.0409   -2.1111 H         1 UNK         0.3013 
    105 H105       29.2550   26.6637    1.6785 H         1 UNK         0.3121 
    106 H106       29.0448   29.3768    2.8681 H         1 UNK         0.0774 
    107 H107       26.8824   29.7359    1.6732 H         1 UNK         0.0815 
    108 H108       26.9020   28.0693    1.1051 H         1 UNK         0.0815 
    109 H109       26.7323   28.4214    2.8221 H         1 UNK         0.0815 
    110 H110       31.0497   27.9308    1.0313 H         1 UNK         0.2987 
    111 H111       30.8159   29.1740   -1.5405 H         1 UNK         0.0949 
    112 H112       33.1791   28.4629   -1.8346 H         1 UNK         0.0806 
    113 H113       33.3067   28.0879   -0.1264 H         1 UNK         0.0806 
    114 H114       32.2241   27.1561   -1.1671 H         1 UNK         0.0806 
    115 H115       32.0187   30.3537    1.5306 H         1 UNK         0.3010 
    116 H116       32.2887   33.0499    0.5678 H         1 UNK         0.0829 
    117 H117       34.6121   32.1737    0.0688 H         1 UNK         0.0813 
    118 H118       34.6578   33.3113    1.4023 H         1 UNK         0.0813 
    119 H119       34.7495   31.5826    1.7222 H         1 UNK         0.0813 
    120 H120       32.6548   34.4767    2.5217 H         1 UNK         0.3038 
    121 H121       30.9832   33.7938    4.6955 H         1 UNK         0.0769 
    122 H122       31.8423   35.9235    5.6905 H         1 UNK         0.0811 
    123 H123       31.4211   36.1352    4.0003 H         1 UNK         0.0811 
    124 H124       33.1136   35.9927    4.4784 H         1 UNK         0.0811 
    125 H125       34.4271   33.3149    4.2636 H         1 UNK         0.3204 
    126 H126       35.1562   32.7339    6.9689 H         1 UNK         0.0748 
    127 H127       37.2031   31.7820    5.8925 H         1 UNK         0.0771 
    128 H128       36.4400   31.8850    4.3122 H         1 UNK         0.0771 
    129 H129       36.8130   33.3538    5.2171 H         1 UNK         0.0771 
    130 H130       33.3270   30.8440    4.6478 H         1 UNK         0.2980 
    131 H131       34.0515   28.2576    5.7500 H         1 UNK         0.0545 
    132 H132       31.9295   30.7183    6.9758 H         1 UNK         0.3459 
    133 H133       31.0013   29.6458    7.9963 H         1 UNK         0.3459 
    134 H134       31.7741   28.9643    3.8514 H         1 UNK         0.0616 
    135 H135       32.2939   27.3605    4.2457 H         1 UNK         0.0616 
    136 H136       35.5694   26.8659    2.2153 H         1 UNK         0.0634 
    137 H137       35.2750   26.8955    3.9363 H         1 UNK         0.0634 
@<TRIPOS>BOND
     1    1    2 1    
     2    1   72 1    
     3    1   73 1    
     4    1   74 1    
     5    2    3 2    
     6    2    4 am   BACKBONE|DICT|INTERRES
     7    4    5 1    
     8    4   75 1    
     9    5    6 1    
    10    5   35 1    
    11    5   76 1    
    12    6    7 1    
    13    6   77 1    
    14    6   78 1    
    15    7    8 1    
    16    8    9 1    
    17    8   79 1    
    18    8   80 1    
    19    9   10 ar   
    20    9   14 ar   
    21   10   11 ar   
    22   10   81 1    
    23   11   12 ar   
    24   11   71 1    
    25   12   13 ar   
    26   12   82 1    
    27   13   14 ar   
    28   13   15 1    
    29   14   83 1    
    30   15   16 1    
    31   15   84 1    
    32   15   85 1    
    33   16   17 1    
    34   17   18 1    
    35   17   86 1    
    36   17   87 1    
    37   18   19 1    
    38   18   37 1    
    39   18   88 1    
    40   19   20 am   BACKBONE|DICT|INTERRES
    41   19   89 1    
    42   20   21 2    
    43   20   22 1    
    44   22   23 1    
    45   22   24 1    
    46   22   90 1    
    47   23   91 1    
    48   23   92 1    
    49   23   93 1    
    50   24   25 am   BACKBONE|DICT|INTERRES
    51   24   94 1    
    52   25   26 2    
    53   25   27 1    
    54   27   28 1    
    55   27   29 1    
    56   27   95 1    
    57   28   96 1    
    58   28   97 1    
    59   28   98 1    
    60   29   30 am   BACKBONE|DICT|INTERRES
    61   29   99 1    
    62   30   31 2    
    63   30   32 1    
    64   32   33 1    
    65   32   34 1    
    66   32  100 1    
    67   33  101 1    
    68   33  102 1    
    69   33  103 1    
    70   34   35 am   BACKBONE|DICT|INTERRES
    71   34  104 1    
    72   35   36 2    
    73   37   38 2    
    74   37   39 am   BACKBONE|DICT|INTERRES
    75   39   40 1    
    76   39  105 1    
    77   40   41 1    
    78   40   42 1    
    79   40  106 1    
    80   41  107 1    
    81   41  108 1    
    82   41  109 1    
    83   42   43 2    
    84   42   44 am   BACKBONE|DICT|INTERRES
    85   44   45 1    
    86   44  110 1    
    87   45   46 1    
    88   45   47 1    
    89   45  111 1    
    90   46  112 1    
    91   46  113 1    
    92   46  114 1    
    93   47   48 2    
    94   47   49 am   BACKBONE|DICT|INTERRES
    95   49   50 1    
    96   49  115 1    
    97   50   51 1    
    98   50   52 1    
    99   50  116 1    
   100   51  117 1    
   101   51  118 1    
   102   51  119 1    
   103   52   53 2    
   104   52   54 am   BACKBONE|DICT|INTERRES
   105   54   55 1    
   106   54  120 1    
   107   55   56 1    
   108   55   57 1    
   109   55  121 1    
   110   56  122 1    
   111   56  123 1    
   112   56  124 1    
   113   57   58 2    
   114   57   59 am   BACKBONE|DICT|INTERRES
   115   59   60 1    
   116   59  125 1    
   117   60   61 1    
   118   60   62 1    
   119   60  126 1    
   120   61  127 1    
   121   61  128 1    
   122   61  129 1    
   123   62   63 2    
   124   62   64 am   BACKBONE|DICT|INTERRES
   125   64   65 1    
   126   64  130 1    
   127   65   66 1    
   128   65   69 1    
   129   65  131 1    
   130   66   67 am   BACKBONE|DICT|INTERRES
   131   66   68 2    
   132   67  132 1    
   133   67  133 1    
   134   69   70 1    
   135   69  134 1    
   136   69  135 1    
   137   70   71 1    
   138   71  136 1    
   139   71  137 1    
@<TRIPOS>SUBSTRUCTURE
     1 UNK         1 GROUP             0       ****    0 ROOT    
