@<TRIPOS>MOLECULE
3R136
137   139    1
SMALL
USER_CHARGES


@<TRIPOS>ATOM
      1 CA         27.3475   23.2842    2.5388 C.3       0 UNK        -0.1979 
      2 C          27.3787   23.2347    1.0206 C.2       0 UNK         0.4864 
      3 O          26.3696   23.5088    0.3691 O.2       0 UNK        -0.5359 
      4 N          28.5476   22.8717    0.4813 N.am      1 UNK        -0.4318 
      5 CA         28.8454   22.5545   -0.9201 C.3       1 UNK         0.0824 
      6 C6         30.3318   22.1403   -1.0902 C.3       12 UNK        -0.0944 
      7 S7         31.5085   23.3723   -0.4177 S.3       12 UNK        -0.2672 
      8 C8         32.0261   22.6008    1.1531 C.3       12 UNK         0.0333 
      9 C9         32.1291   23.6227    2.2790 C.ar      12 UNK        -0.0807 
     10 C10        33.0485   24.6726    2.1892 C.ar      12 UNK        -0.0894 
     11 C11        33.1644   25.6061    3.2224 C.ar      12 UNK        -0.0804 
     12 C12        32.3622   25.4792    4.3595 C.ar      12 UNK        -0.0824 
     13 C13        31.4560   24.4216    4.4750 C.ar      12 UNK        -0.0762 
     14 C14        31.3356   23.5022    3.4268 C.ar      12 UNK        -0.0782 
     15 C15        30.6582   24.2354    5.7592 C.3       12 UNK         0.0230 
     16 S16        28.9240   24.7630    5.5994 S.3       12 UNK        -0.2608 
     17 C17        29.0632   26.5830    5.5463 C.3       12 UNK        -0.0989 
     18 CA         28.6071   27.1597    4.1851 C.3       5 UNK         0.0716 
     19 N          27.2331   26.7651    3.8464 N.am      5 UNK        -0.4135 
     20 C          26.6760   26.9003    2.6368 C.2       4 UNK         0.5031 
     21 O          27.2473   27.4337    1.6802 O.2       4 UNK        -0.5229 
     22 CA         25.2612   26.3105    2.4846 C.3       4 UNK         0.0329 
     23 CB         24.2159   27.0849    3.3167 C.3       4 UNK        -0.2001 
     24 N          24.8942   26.1817    1.0687 N.am      4 UNK        -0.4303 
     25 C          24.5099   27.1564    0.2303 C.2       3 UNK         0.5044 
     26 O          24.1554   28.2847    0.5753 O.2       3 UNK        -0.5152 
     27 CA         24.6712   26.8289   -1.2576 C.3       3 UNK         0.0319 
     28 CB         24.1148   27.9393   -2.1778 C.3       3 UNK        -0.2001 
     29 N          26.1039   26.6254   -1.4613 N.am      3 UNK        -0.4354 
     30 C          26.7171   26.2120   -2.5736 C.2       2 UNK         0.4964 
     31 O          26.1438   25.9517   -3.6317 O.2       2 UNK        -0.5047 
     32 CA         28.2409   26.0444   -2.4657 C.3       2 UNK         0.0288 
     33 CB         28.9280   27.3194   -1.9451 C.3       2 UNK        -0.2113 
     34 N          28.5878   24.9130   -1.6041 N.am      2 UNK        -0.4145 
     35 C          28.4423   23.6273   -1.9547 C.2       1 UNK         0.5006 
     36 O          28.0268   23.2613   -3.0561 O.2       1 UNK        -0.5103 
     37 C          28.8171   28.6868    4.1414 C.2       5 UNK         0.5055 
     38 O          29.9433   29.1300    3.9179 O.2       5 UNK        -0.5220 
     39 N          27.7393   29.4658    4.3192 N.am      6 UNK        -0.4450 
     40 CA         27.7334   30.9249    4.1903 C.3       6 UNK         0.0367 
     41 CB         26.3725   31.4779    4.6415 C.3       6 UNK        -0.1929 
     42 C          28.0645   31.3959    2.7640 C.2       6 UNK         0.5070 
     43 O          28.8254   32.3496    2.6061 O.2       6 UNK        -0.5237 
     44 N          27.5411   30.6899    1.7502 N.am      7 UNK        -0.4739 
     45 CA         27.8446   30.9360    0.3356 C.3       7 UNK         0.0276 
     46 CB         26.8132   30.2157   -0.5438 C.3       7 UNK        -0.1927 
     47 C          29.2742   30.5134   -0.0445 C.2       7 UNK         0.5013 
     48 O          29.8545   31.0965   -0.9597 O.2       7 UNK        -0.5193 
     49 N          29.8262   29.5386    0.6915 N.am      8 UNK        -0.4253 
     50 CA         31.2233   29.1067    0.6088 C.3       8 UNK         0.0242 
     51 CB         31.3159   27.6362    1.0497 C.3       8 UNK        -0.2000 
     52 C          32.1776   29.9973    1.4352 C.2       8 UNK         0.4948 
     53 O          33.3766   29.7184    1.4598 O.2       8 UNK        -0.5275 
     54 N          31.6413   31.0387    2.0934 N.am      9 UNK        -0.4246 
     55 CA         32.3241   32.0291    2.9323 C.3       9 UNK         0.0261 
     56 CB         33.3332   32.8557    2.1060 C.3       9 UNK        -0.1959 
     57 C          32.9369   31.4410    4.2178 C.2       9 UNK         0.5033 
     58 O          33.9629   31.9422    4.6828 O.2       9 UNK        -0.5390 
     59 N          32.3017   30.3997    4.7781 N.am      10 UNK        -0.4215 
     60 CA         32.6036   29.6884    6.0320 C.3       10 UNK         0.0240 
     61 CB         32.4806   30.6266    7.2480 C.3       10 UNK        -0.1982 
     62 C          33.9362   28.9138    6.0651 C.2       10 UNK         0.4970 
     63 O          33.9638   27.8291    6.6464 O.2       10 UNK        -0.4916 
     64 N          34.9820   29.4656    5.4370 N.am      11 UNK        -0.4279 
     65 CA         36.3442   28.9356    5.2695 C.3       11 UNK         0.1003 
     66 C          37.0215   28.4248    6.5791 C.2       11 UNK         0.5709 
     67 N          37.8867   27.4210    6.5154 N.am      11 UNK        -0.7358 
     68 O          36.8236   28.9895    7.6539 O.2       11 UNK        -0.4999 
     69 C69        36.4892   28.0314    4.0064 C.3       12 UNK        -0.0954 
     70 S70        35.6516   26.4126    4.0926 S.3       12 UNK        -0.2268 
     71 C71        34.1565   26.7518    3.1162 C.3       12 UNK         0.0203 
     72 H72        27.9125   22.4572    2.9686 H         1 UNK         0.0888 
     73 H73        27.7892   24.2122    2.8934 H         1 UNK         0.0888 
     74 H74        26.3263   23.2098    2.9101 H         1 UNK         0.0888 
     75 H75        29.3296   22.7318    1.1028 H         1 UNK         0.3017 
     76 H76        28.2372   21.6792   -1.1577 H         1 UNK         0.0873 
     77 H77        30.5705   21.9745   -2.1429 H         1 UNK         0.0745 
     78 H78        30.5017   21.1756   -0.6101 H         1 UNK         0.0745 
     79 H79        32.9964   22.1235    1.0093 H         1 UNK         0.0705 
     80 H80        31.3348   21.8046    1.4316 H         1 UNK         0.0705 
     81 H81        33.6712   24.7636    1.3096 H         1 UNK         0.1334 
     82 H82        32.4685   26.1901    5.1671 H         1 UNK         0.1417 
     83 H83        30.6399   22.6798    3.5222 H         1 UNK         0.1562 
     84 H84        31.1255   24.7697    6.5881 H         1 UNK         0.0748 
     85 H85        30.6743   23.1808    6.0382 H         1 UNK         0.0748 
     86 H86        30.0937   26.8736    5.7592 H         1 UNK         0.0940 
     87 H87        28.4620   26.9935    6.3599 H         1 UNK         0.0940 
     88 H88        29.2581   26.7372    3.4165 H         1 UNK         0.0703 
     89 H89        26.7180   26.2958    4.5776 H         1 UNK         0.3081 
     90 H90        25.2899   25.2917    2.8688 H         1 UNK         0.0719 
     91 H91        24.2523   28.1586    3.1296 H         1 UNK         0.0809 
     92 H92        23.2039   26.7413    3.1019 H         1 UNK         0.0809 
     93 H93        24.3816   26.9428    4.3850 H         1 UNK         0.0809 
     94 H94        25.1881   25.3053    0.6479 H         1 UNK         0.2990 
     95 H95        24.1446   25.8948   -1.4625 H         1 UNK         0.0690 
     96 H96        24.1565   27.6534   -3.2283 H         1 UNK         0.0788 
     97 H97        24.6663   28.8727   -2.0638 H         1 UNK         0.0788 
     98 H98        23.0692   28.1471   -1.9474 H         1 UNK         0.0788 
     99 H99        26.6700   26.7973   -0.6386 H         1 UNK         0.2993 
    100 H100       28.6220   25.8463   -3.4702 H         1 UNK         0.0949 
    101 H101       30.0132   27.2342   -2.0053 H         1 UNK         0.0767 
    102 H102       28.6403   28.1908   -2.5350 H         1 UNK         0.0767 
    103 H103       28.6698   27.5258   -0.9068 H         1 UNK         0.0767 
    104 H104       28.9445   25.1179   -0.6826 H         1 UNK         0.3013 
    105 H105       26.8540   29.0212    4.5114 H         1 UNK         0.3121 
    106 H106       28.5028   31.3220    4.8565 H         1 UNK         0.0774 
    107 H107       26.3521   32.5664    4.5697 H         1 UNK         0.0815 
    108 H108       25.5549   31.0962    4.0285 H         1 UNK         0.0815 
    109 H109       26.1635   31.2204    5.6799 H         1 UNK         0.0815 
    110 H110       26.9548   29.8918    1.9558 H         1 UNK         0.2987 
    111 H111       27.7609   32.0091    0.1487 H         1 UNK         0.0949 
    112 H112       26.8325   29.1394   -0.3816 H         1 UNK         0.0806 
    113 H113       25.8014   30.5648   -0.3369 H         1 UNK         0.0806 
    114 H114       27.0078   30.3905   -1.6027 H         1 UNK         0.0806 
    115 H115       29.2645   29.1166    1.4185 H         1 UNK         0.3010 
    116 H116       31.5453   29.1660   -0.4330 H         1 UNK         0.0829 
    117 H117       30.5869   27.0080    0.5396 H         1 UNK         0.0813 
    118 H118       32.3007   27.2305    0.8187 H         1 UNK         0.0813 
    119 H119       31.1621   27.5242    2.1226 H         1 UNK         0.0813 
    120 H120       30.6389   31.1655    2.0274 H         1 UNK         0.3038 
    121 H121       31.5454   32.7149    3.2690 H         1 UNK         0.0769 
    122 H122       33.7214   33.6934    2.6866 H         1 UNK         0.0811 
    123 H123       32.8680   33.2716    1.2123 H         1 UNK         0.0811 
    124 H124       34.1881   32.2560    1.7924 H         1 UNK         0.0811 
    125 H125       31.4802   30.0384    4.2923 H         1 UNK         0.3204 
    126 H126       31.8167   28.9379    6.1236 H         1 UNK         0.0748 
    127 H127       32.6066   30.0736    8.1798 H         1 UNK         0.0771 
    128 H128       33.2358   31.4130    7.2345 H         1 UNK         0.0771 
    129 H129       31.5004   31.1023    7.2833 H         1 UNK         0.0771 
    130 H130       34.8262   30.3968    5.0575 H         1 UNK         0.2980 
    131 H131       36.9251   29.8298    5.0417 H         1 UNK         0.0545 
    132 H132       38.3446   27.1106    7.3577 H         1 UNK         0.3459 
    133 H133       38.0501   26.9405    5.6445 H         1 UNK         0.3459 
    134 H134       36.1192   28.5711    3.1329 H         1 UNK         0.0616 
    135 H135       37.5442   27.8505    3.7960 H         1 UNK         0.0616 
    136 H136       34.4402   26.9236    2.0768 H         1 UNK         0.0634 
    137 H137       33.6847   27.6726    3.4601 H         1 UNK         0.0634 
@<TRIPOS>BOND
     1    1    2 1    
     2    1   72 1    
     3    1   73 1    
     4    1   74 1    
     5    2    3 2    
     6    2    4 am   BACKBONE|DICT|INTERRES
     7    4    5 1    
     8    4   75 1    
     9    5    6 1    
    10    5   35 1    
    11    5   76 1    
    12    6    7 1    
    13    6   77 1    
    14    6   78 1    
    15    7    8 1    
    16    8    9 1    
    17    8   79 1    
    18    8   80 1    
    19    9   10 ar   
    20    9   14 ar   
    21   10   11 ar   
    22   10   81 1    
    23   11   12 ar   
    24   11   71 1    
    25   12   13 ar   
    26   12   82 1    
    27   13   14 ar   
    28   13   15 1    
    29   14   83 1    
    30   15   16 1    
    31   15   84 1    
    32   15   85 1    
    33   16   17 1    
    34   17   18 1    
    35   17   86 1    
    36   17   87 1    
    37   18   19 1    
    38   18   37 1    
    39   18   88 1    
    40   19   20 am   BACKBONE|DICT|INTERRES
    41   19   89 1    
    42   20   21 2    
    43   20   22 1    
    44   22   23 1    
    45   22   24 1    
    46   22   90 1    
    47   23   91 1    
    48   23   92 1    
    49   23   93 1    
    50   24   25 am   BACKBONE|DICT|INTERRES
    51   24   94 1    
    52   25   26 2    
    53   25   27 1    
    54   27   28 1    
    55   27   29 1    
    56   27   95 1    
    57   28   96 1    
    58   28   97 1    
    59   28   98 1    
    60   29   30 am   BACKBONE|DICT|INTERRES
    61   29   99 1    
    62   30   31 2    
    63   30   32 1    
    64   32   33 1    
    65   32   34 1    
    66   32  100 1    
    67   33  101 1    
    68   33  102 1    
    69   33  103 1    
    70   34   35 am   BACKBONE|DICT|INTERRES
    71   34  104 1    
    72   35   36 2    
    73   37   38 2    
    74   37   39 am   BACKBONE|DICT|INTERRES
    75   39   40 1    
    76   39  105 1    
    77   40   41 1    
    78   40   42 1    
    79   40  106 1    
    80   41  107 1    
    81   41  108 1    
    82   41  109 1    
    83   42   43 2    
    84   42   44 am   BACKBONE|DICT|INTERRES
    85   44   45 1    
    86   44  110 1    
    87   45   46 1    
    88   45   47 1    
    89   45  111 1    
    90   46  112 1    
    91   46  113 1    
    92   46  114 1    
    93   47   48 2    
    94   47   49 am   BACKBONE|DICT|INTERRES
    95   49   50 1    
    96   49  115 1    
    97   50   51 1    
    98   50   52 1    
    99   50  116 1    
   100   51  117 1    
   101   51  118 1    
   102   51  119 1    
   103   52   53 2    
   104   52   54 am   BACKBONE|DICT|INTERRES
   105   54   55 1    
   106   54  120 1    
   107   55   56 1    
   108   55   57 1    
   109   55  121 1    
   110   56  122 1    
   111   56  123 1    
   112   56  124 1    
   113   57   58 2    
   114   57   59 am   BACKBONE|DICT|INTERRES
   115   59   60 1    
   116   59  125 1    
   117   60   61 1    
   118   60   62 1    
   119   60  126 1    
   120   61  127 1    
   121   61  128 1    
   122   61  129 1    
   123   62   63 2    
   124   62   64 am   BACKBONE|DICT|INTERRES
   125   64   65 1    
   126   64  130 1    
   127   65   66 1    
   128   65   69 1    
   129   65  131 1    
   130   66   67 am   BACKBONE|DICT|INTERRES
   131   66   68 2    
   132   67  132 1    
   133   67  133 1    
   134   69   70 1    
   135   69  134 1    
   136   69  135 1    
   137   70   71 1    
   138   71  136 1    
   139   71  137 1    
@<TRIPOS>SUBSTRUCTURE
     1 UNK         1 GROUP             0       ****    0 ROOT    
