@<TRIPOS>MOLECULE
3R136
137   139    1
SMALL
USER_CHARGES


@<TRIPOS>ATOM
      1 CA         24.4467   22.0191   -1.5712 C.3       0 UNK        -0.1979 
      2 C          25.8884   21.9596   -2.0546 C.2       0 UNK         0.4864 
      3 O          26.1262   21.8318   -3.2571 O.2       0 UNK        -0.5359 
      4 N          26.8499   22.0423   -1.1269 N.am      1 UNK        -0.4318 
      5 CA         28.2871   22.0889   -1.4089 C.3       1 UNK         0.0824 
      6 C6         29.1197   21.7050   -0.1561 C.3       12 UNK        -0.0944 
      7 S7         28.8464   22.7765    1.2998 S.3       12 UNK        -0.2672 
      8 C8         29.7766   21.8484    2.5580 C.3       12 UNK         0.0333 
      9 C9         29.8053   22.5940    3.8834 C.ar      12 UNK        -0.0807 
     10 C10        30.9620   23.2597    4.3022 C.ar      12 UNK        -0.0894 
     11 C11        30.9827   23.9532    5.5160 C.ar      12 UNK        -0.0804 
     12 C12        29.8448   23.9495    6.3294 C.ar      12 UNK        -0.0824 
     13 C13        28.6740   23.3074    5.9088 C.ar      12 UNK        -0.0762 
     14 C14        28.6651   22.6226    4.6903 C.ar      12 UNK        -0.0782 
     15 C15        27.4019   23.3954    6.7414 C.3       12 UNK         0.0230 
     16 S16        26.7783   25.1060    6.8756 S.3       12 UNK        -0.2608 
     17 C17        26.5298   25.6003    5.1300 C.3       12 UNK        -0.0989 
     18 CA         27.7803   26.2978    4.5281 C.3       5 UNK         0.0716 
     19 N          27.8389   26.2177    3.0675 N.am      5 UNK        -0.4135 
     20 C          27.1844   26.9888    2.1897 C.2       4 UNK         0.5031 
     21 O          26.3113   27.7964    2.5090 O.2       4 UNK        -0.5229 
     22 CA         27.5875   26.8560    0.7058 C.3       4 UNK         0.0329 
     23 CB         27.4678   28.1961   -0.0474 C.3       4 UNK        -0.2001 
     24 N          28.9146   26.2730    0.4574 N.am      4 UNK        -0.4303 
     25 C          30.1077   26.6837    0.9229 C.2       3 UNK         0.5044 
     26 O          30.2460   27.5625    1.7751 O.2       3 UNK        -0.5152 
     27 CA         31.3668   25.9806    0.3732 C.3       3 UNK         0.0319 
     28 CB         31.9676   25.0302    1.4212 C.3       3 UNK        -0.2001 
     29 N          31.1361   25.2188   -0.8553 N.am      3 UNK        -0.4354 
     30 C          30.8878   25.7366   -2.0664 C.2       2 UNK         0.4964 
     31 O          30.9405   26.9390   -2.3237 O.2       2 UNK        -0.5047 
     32 CA         30.4786   24.7397   -3.1703 C.3       2 UNK         0.0288 
     33 CB         31.6915   24.3729   -4.0410 C.3       2 UNK        -0.2113 
     34 N          29.8592   23.5078   -2.6575 N.am      2 UNK        -0.4145 
     35 C          28.7050   23.4637   -1.9741 C.2       1 UNK         0.5006 
     36 O          28.0256   24.4646   -1.7296 O.2       1 UNK        -0.5103 
     37 C          28.0632   27.7217    5.0605 C.2       5 UNK         0.5055 
     38 O          27.2796   28.2733    5.8359 O.2       5 UNK        -0.5220 
     39 N          29.1950   28.2829    4.6110 N.am      6 UNK        -0.4450 
     40 CA         29.7766   29.5654    5.0192 C.3       6 UNK         0.0367 
     41 CB         30.0746   29.5980    6.5347 C.3       6 UNK        -0.1929 
     42 C          29.0033   30.8085    4.5364 C.2       6 UNK         0.5070 
     43 O          29.2478   31.9044    5.0452 O.2       6 UNK        -0.5237 
     44 N          28.1058   30.6451    3.5551 N.am      7 UNK        -0.4739 
     45 CA         27.4455   31.7523    2.8633 C.3       7 UNK         0.0276 
     46 CB         26.1652   31.2428    2.1849 C.3       7 UNK        -0.1927 
     47 C          28.4024   32.3714    1.8318 C.2       7 UNK         0.5013 
     48 O          29.0777   31.6322    1.1129 O.2       7 UNK        -0.5193 
     49 N          28.4399   33.7101    1.7769 N.am      8 UNK        -0.4253 
     50 CA         29.2733   34.5733    0.9214 C.3       8 UNK         0.0242 
     51 CB         29.0249   34.3109   -0.5776 C.3       8 UNK        -0.2000 
     52 C          30.7803   34.5527    1.2488 C.2       8 UNK         0.4948 
     53 O          31.3980   35.6184    1.2656 O.2       8 UNK        -0.5275 
     54 N          31.3431   33.3726    1.5224 N.am      9 UNK        -0.4246 
     55 CA         32.7119   33.1571    1.9824 C.3       9 UNK         0.0261 
     56 CB         33.6171   32.8258    0.7841 C.3       9 UNK        -0.1959 
     57 C          32.6898   32.0050    2.9901 C.2       9 UNK         0.5033 
     58 O          31.8686   31.0978    2.8470 O.2       9 UNK        -0.5390 
     59 N          33.5925   32.0420    3.9785 N.am      10 UNK        -0.4215 
     60 CA         33.6732   31.0965    5.0992 C.3       10 UNK         0.0240 
     61 CB         34.4944   31.7399    6.2328 C.3       10 UNK        -0.1982 
     62 C          34.2106   29.7073    4.6943 C.2       10 UNK         0.4970 
     63 O          35.2821   29.3035    5.1493 O.2       10 UNK        -0.4916 
     64 N          33.4552   29.0159    3.8345 N.am      11 UNK        -0.4279 
     65 CA         33.7248   27.6750    3.2894 C.3       11 UNK         0.1003 
     66 C          34.9460   27.5985    2.3221 C.2       11 UNK         0.5709 
     67 N          35.4630   28.7129    1.8177 N.am      11 UNK        -0.7358 
     68 O          35.4133   26.5120    1.9896 O.2       11 UNK        -0.4999 
     69 C69        33.7369   26.5518    4.3722 C.3       12 UNK        -0.0954 
     70 S70        32.1739   26.4397    5.3105 S.3       12 UNK        -0.2268 
     71 C71        32.2242   24.7267    5.9366 C.3       12 UNK         0.0203 
     72 H72        23.9154   21.1129   -1.8611 H         1 UNK         0.0888 
     73 H73        24.3841   22.1168   -0.4875 H         1 UNK         0.0888 
     74 H74        23.9366   22.8720   -2.0182 H         1 UNK         0.0888 
     75 H75        26.6011   22.1816   -0.1579 H         1 UNK         0.3017 
     76 H76        28.4940   21.3467   -2.1834 H         1 UNK         0.0873 
     77 H77        28.8792   20.6793    0.1292 H         1 UNK         0.0745 
     78 H78        30.1861   21.6988   -0.3891 H         1 UNK         0.0745 
     79 H79        29.3185   20.8682    2.6984 H         1 UNK         0.0705 
     80 H80        30.7912   21.6677    2.1992 H         1 UNK         0.0705 
     81 H81        31.8462   23.2491    3.6805 H         1 UNK         0.1334 
     82 H82        29.8502   24.4933    7.2645 H         1 UNK         0.1417 
     83 H83        27.7643   22.1264    4.3547 H         1 UNK         0.1562 
     84 H84        27.6038   23.0129    7.7428 H         1 UNK         0.0748 
     85 H85        26.6158   22.7636    6.3247 H         1 UNK         0.0748 
     86 H86        25.6549   26.2491    5.0587 H         1 UNK         0.0940 
     87 H87        26.2835   24.7066    4.5546 H         1 UNK         0.0940 
     88 H88        28.6545   25.7311    4.8329 H         1 UNK         0.0703 
     89 H89        28.5284   25.5808    2.6943 H         1 UNK         0.3081 
     90 H90        26.8706   26.1625    0.2638 H         1 UNK         0.0719 
     91 H91        28.1131   28.9605    0.3884 H         1 UNK         0.0809 
     92 H92        26.4446   28.5720   -0.0228 H         1 UNK         0.0809 
     93 H93        27.7425   28.0860   -1.0966 H         1 UNK         0.0809 
     94 H94        28.9080   25.5231   -0.2261 H         1 UNK         0.2990 
     95 H95        32.0960   26.7660    0.1633 H         1 UNK         0.0690 
     96 H96        33.0211   24.8365    1.2183 H         1 UNK         0.0788 
     97 H97        31.4531   24.0717    1.4390 H         1 UNK         0.0788 
     98 H98        31.8988   25.4410    2.4273 H         1 UNK         0.0788 
     99 H99        31.0885   24.2160   -0.7553 H         1 UNK         0.2993 
    100 H100       29.7421   25.2435   -3.8004 H         1 UNK         0.0949 
    101 H101       31.4014   23.7404   -4.8804 H         1 UNK         0.0767 
    102 H102       32.1568   25.2673   -4.4583 H         1 UNK         0.0767 
    103 H103       32.4556   23.8449   -3.4689 H         1 UNK         0.0767 
    104 H104       30.3634   22.6481   -2.8234 H         1 UNK         0.3013 
    105 H105       29.7177   27.7901    3.8938 H         1 UNK         0.3121 
    106 H106       30.7373   29.6007    4.5116 H         1 UNK         0.0774 
    107 H107       30.6475   30.4857    6.8038 H         1 UNK         0.0815 
    108 H108       29.1606   29.6162    7.1283 H         1 UNK         0.0815 
    109 H109       30.6598   28.7319    6.8431 H         1 UNK         0.0815 
    110 H110       27.9712   29.7202    3.1707 H         1 UNK         0.2987 
    111 H111       27.1646   32.5095    3.5990 H         1 UNK         0.0949 
    112 H112       26.3843   30.5036    1.4152 H         1 UNK         0.0806 
    113 H113       25.4895   30.7819    2.9058 H         1 UNK         0.0806 
    114 H114       25.6245   32.0604    1.7067 H         1 UNK         0.0806 
    115 H115       27.8579   34.2142    2.4324 H         1 UNK         0.3010 
    116 H116       28.9328   35.5897    1.1268 H         1 UNK         0.0829 
    117 H117       27.9661   34.3887   -0.8244 H         1 UNK         0.0813 
    118 H118       29.5553   35.0405   -1.1910 H         1 UNK         0.0813 
    119 H119       29.3698   33.3231   -0.8845 H         1 UNK         0.0813 
    120 H120       30.7572   32.5387    1.5098 H         1 UNK         0.3038 
    121 H121       33.0800   34.0544    2.4847 H         1 UNK         0.0769 
    122 H122       33.6303   33.6420    0.0615 H         1 UNK         0.0811 
    123 H123       33.2834   31.9258    0.2656 H         1 UNK         0.0811 
    124 H124       34.6465   32.6584    1.1033 H         1 UNK         0.0811 
    125 H125       34.2595   32.8008    3.9911 H         1 UNK         0.3204 
    126 H126       32.6624   30.9430    5.4810 H         1 UNK         0.0748 
    127 H127       34.0448   32.6750    6.5675 H         1 UNK         0.0771 
    128 H128       34.5460   31.0809    7.1007 H         1 UNK         0.0771 
    129 H129       35.5185   31.9510    5.9219 H         1 UNK         0.0771 
    130 H130       32.6477   29.4962    3.4445 H         1 UNK         0.2980 
    131 H131       32.8728   27.4856    2.6398 H         1 UNK         0.0545 
    132 H132       36.2443   28.6503    1.1845 H         1 UNK         0.3459 
    133 H133       35.0882   29.6112    2.0735 H         1 UNK         0.3459 
    134 H134       33.9092   25.5831    3.9008 H         1 UNK         0.0616 
    135 H135       34.5579   26.6976    5.0753 H         1 UNK         0.0616 
    136 H136       32.2983   24.7540    7.0246 H         1 UNK         0.0634 
    137 H137       33.1200   24.2118    5.5874 H         1 UNK         0.0634 
@<TRIPOS>BOND
     1    1    2 1    
     2    1   72 1    
     3    1   73 1    
     4    1   74 1    
     5    2    3 2    
     6    2    4 am   BACKBONE|DICT|INTERRES
     7    4    5 1    
     8    4   75 1    
     9    5    6 1    
    10    5   35 1    
    11    5   76 1    
    12    6    7 1    
    13    6   77 1    
    14    6   78 1    
    15    7    8 1    
    16    8    9 1    
    17    8   79 1    
    18    8   80 1    
    19    9   10 ar   
    20    9   14 ar   
    21   10   11 ar   
    22   10   81 1    
    23   11   12 ar   
    24   11   71 1    
    25   12   13 ar   
    26   12   82 1    
    27   13   14 ar   
    28   13   15 1    
    29   14   83 1    
    30   15   16 1    
    31   15   84 1    
    32   15   85 1    
    33   16   17 1    
    34   17   18 1    
    35   17   86 1    
    36   17   87 1    
    37   18   19 1    
    38   18   37 1    
    39   18   88 1    
    40   19   20 am   BACKBONE|DICT|INTERRES
    41   19   89 1    
    42   20   21 2    
    43   20   22 1    
    44   22   23 1    
    45   22   24 1    
    46   22   90 1    
    47   23   91 1    
    48   23   92 1    
    49   23   93 1    
    50   24   25 am   BACKBONE|DICT|INTERRES
    51   24   94 1    
    52   25   26 2    
    53   25   27 1    
    54   27   28 1    
    55   27   29 1    
    56   27   95 1    
    57   28   96 1    
    58   28   97 1    
    59   28   98 1    
    60   29   30 am   BACKBONE|DICT|INTERRES
    61   29   99 1    
    62   30   31 2    
    63   30   32 1    
    64   32   33 1    
    65   32   34 1    
    66   32  100 1    
    67   33  101 1    
    68   33  102 1    
    69   33  103 1    
    70   34   35 am   BACKBONE|DICT|INTERRES
    71   34  104 1    
    72   35   36 2    
    73   37   38 2    
    74   37   39 am   BACKBONE|DICT|INTERRES
    75   39   40 1    
    76   39  105 1    
    77   40   41 1    
    78   40   42 1    
    79   40  106 1    
    80   41  107 1    
    81   41  108 1    
    82   41  109 1    
    83   42   43 2    
    84   42   44 am   BACKBONE|DICT|INTERRES
    85   44   45 1    
    86   44  110 1    
    87   45   46 1    
    88   45   47 1    
    89   45  111 1    
    90   46  112 1    
    91   46  113 1    
    92   46  114 1    
    93   47   48 2    
    94   47   49 am   BACKBONE|DICT|INTERRES
    95   49   50 1    
    96   49  115 1    
    97   50   51 1    
    98   50   52 1    
    99   50  116 1    
   100   51  117 1    
   101   51  118 1    
   102   51  119 1    
   103   52   53 2    
   104   52   54 am   BACKBONE|DICT|INTERRES
   105   54   55 1    
   106   54  120 1    
   107   55   56 1    
   108   55   57 1    
   109   55  121 1    
   110   56  122 1    
   111   56  123 1    
   112   56  124 1    
   113   57   58 2    
   114   57   59 am   BACKBONE|DICT|INTERRES
   115   59   60 1    
   116   59  125 1    
   117   60   61 1    
   118   60   62 1    
   119   60  126 1    
   120   61  127 1    
   121   61  128 1    
   122   61  129 1    
   123   62   63 2    
   124   62   64 am   BACKBONE|DICT|INTERRES
   125   64   65 1    
   126   64  130 1    
   127   65   66 1    
   128   65   69 1    
   129   65  131 1    
   130   66   67 am   BACKBONE|DICT|INTERRES
   131   66   68 2    
   132   67  132 1    
   133   67  133 1    
   134   69   70 1    
   135   69  134 1    
   136   69  135 1    
   137   70   71 1    
   138   71  136 1    
   139   71  137 1    
@<TRIPOS>SUBSTRUCTURE
     1 UNK         1 GROUP             0       ****    0 ROOT    
