@<TRIPOS>MOLECULE
3R136
137   139    1
SMALL
USER_CHARGES


@<TRIPOS>ATOM
      1 CA         30.2789   25.0951    3.2187 C.3       0 UNK        -0.1979 
      2 C          29.8817   23.7004    3.6917 C.2       0 UNK         0.4864 
      3 O          30.2028   23.3443    4.8237 O.2       0 UNK        -0.5359 
      4 N          29.1782   22.8726    2.9014 N.am      1 UNK        -0.4318 
      5 CA         28.6904   23.0556    1.5208 C.3       1 UNK         0.0824 
      6 C6         29.7985   23.0235    0.4261 C.3       12 UNK        -0.0944 
      7 S7         31.0340   21.6969    0.6915 S.3       12 UNK        -0.2672 
      8 C8         32.5511   22.3494   -0.0891 C.3       12 UNK         0.0333 
      9 C9         32.9126   23.7504    0.3867 C.ar      12 UNK        -0.0807 
     10 C10        33.3405   23.9750    1.6995 C.ar      12 UNK        -0.0894 
     11 C11        33.6051   25.2755    2.1426 C.ar      12 UNK        -0.0804 
     12 C12        33.4482   26.3516    1.2637 C.ar      12 UNK        -0.0824 
     13 C13        33.0417   26.1348   -0.0556 C.ar      12 UNK        -0.0762 
     14 C14        32.7884   24.8314   -0.4904 C.ar      12 UNK        -0.0782 
     15 C15        32.8562   27.3069   -1.0092 C.3       12 UNK         0.0230 
     16 S16        31.1446   27.4204   -1.6238 S.3       12 UNK        -0.2608 
     17 C17        30.2261   27.6338   -0.0648 C.3       12 UNK        -0.0989 
     18 CA         28.8468   28.2946   -0.3063 C.3       5 UNK         0.0716 
     19 N          27.9449   27.3783   -1.0001 N.am      5 UNK        -0.4135 
     20 C          27.1131   27.7054   -1.9942 C.2       4 UNK         0.5031 
     21 O          26.9490   28.8569   -2.3990 O.2       4 UNK        -0.5229 
     22 CA         26.3219   26.5557   -2.6310 C.3       4 UNK         0.0329 
     23 CB         27.2570   25.6133   -3.4091 C.3       4 UNK        -0.2001 
     24 N          25.6089   25.7955   -1.6048 N.am      4 UNK        -0.4303 
     25 C          24.2756   25.7318   -1.4808 C.2       3 UNK         0.5044 
     26 O          23.4846   26.2635   -2.2611 O.2       3 UNK        -0.5152 
     27 CA         23.7178   24.9393   -0.2813 C.3       3 UNK         0.0319 
     28 CB         23.3527   23.5080   -0.7069 C.3       3 UNK        -0.2001 
     29 N          24.6382   24.8815    0.8574 N.am      3 UNK        -0.4354 
     30 C          25.0147   25.9416    1.5863 C.2       2 UNK         0.4964 
     31 O          24.5360   27.0660    1.4473 O.2       2 UNK        -0.5047 
     32 CA         26.1265   25.7297    2.6290 C.3       2 UNK         0.0288 
     33 CB         25.5406   25.7147    4.0499 C.3       2 UNK        -0.2113 
     34 N          26.9569   24.5332    2.4402 N.am      2 UNK        -0.4145 
     35 C          27.7323   24.2613    1.3777 C.2       1 UNK         0.5006 
     36 O          27.7228   24.9277    0.3395 O.2       1 UNK        -0.5103 
     37 C          28.1800   28.7444    1.0021 C.2       5 UNK         0.5055 
     38 O          28.6549   28.3966    2.0824 O.2       5 UNK        -0.5220 
     39 N          27.0751   29.4927    0.8854 N.am      6 UNK        -0.4450 
     40 CA         26.3154   30.0181    2.0234 C.3       6 UNK         0.0367 
     41 CB         24.9607   30.5602    1.5385 C.3       6 UNK        -0.1929 
     42 C          27.0896   31.0972    2.7979 C.2       6 UNK         0.5070 
     43 O          27.1738   31.0282    4.0234 O.2       6 UNK        -0.5237 
     44 N          27.6563   32.0672    2.0663 N.am      7 UNK        -0.4739 
     45 CA         28.4414   33.1697    2.6325 C.3       7 UNK         0.0276 
     46 CB         28.4979   34.3256    1.6207 C.3       7 UNK        -0.1927 
     47 C          29.8616   32.7427    3.0385 C.2       7 UNK         0.5013 
     48 O          30.4067   33.2829    4.0008 O.2       7 UNK        -0.5193 
     49 N          30.4278   31.7767    2.3037 N.am      8 UNK        -0.4253 
     50 CA         31.7762   31.2393    2.5057 C.3       8 UNK         0.0242 
     51 CB         32.4107   30.9523    1.1321 C.3       8 UNK        -0.2000 
     52 C          31.8052   30.0025    3.4243 C.2       8 UNK         0.4948 
     53 O          32.8400   29.3382    3.4970 O.2       8 UNK        -0.5275 
     54 N          30.6973   29.7172    4.1269 N.am      9 UNK        -0.4246 
     55 CA         30.5063   28.5506    4.9983 C.3       9 UNK         0.0261 
     56 CB         29.0671   28.5448    5.5393 C.3       9 UNK        -0.1959 
     57 C          31.5155   28.4186    6.1543 C.2       9 UNK         0.5033 
     58 O          31.7340   27.3062    6.6348 O.2       9 UNK        -0.5390 
     59 N          32.1288   29.5385    6.5636 N.am      10 UNK        -0.4215 
     60 CA         33.2284   29.5888    7.5316 C.3       10 UNK         0.0240 
     61 CB         33.4726   31.0514    7.9379 C.3       10 UNK        -0.1982 
     62 C          34.5346   28.9471    7.0201 C.2       10 UNK         0.4970 
     63 O          35.3686   28.5657    7.8419 O.2       10 UNK        -0.4916 
     64 N          34.6901   28.8378    5.6923 N.am      11 UNK        -0.4279 
     65 CA         35.8233   28.2122    4.9934 C.3       11 UNK         0.1003 
     66 C          37.1876   28.9573    5.1182 C.2       11 UNK         0.5709 
     67 N          37.2195   30.2043    5.5736 N.am      11 UNK        -0.7358 
     68 O          38.2322   28.4151    4.7644 O.2       11 UNK        -0.4999 
     69 C69        35.9111   26.6759    5.2670 C.3       12 UNK        -0.0954 
     70 S70        35.8249   25.7116    3.7247 S.3       12 UNK        -0.2268 
     71 C71        34.0212   25.5357    3.5802 C.3       12 UNK         0.0203 
     72 H72        31.0843   25.4768    3.8441 H         1 UNK         0.0888 
     73 H73        30.6440   25.0956    2.1963 H         1 UNK         0.0888 
     74 H74        29.4403   25.7868    3.2945 H         1 UNK         0.0888 
     75 H75        28.9626   21.9627    3.2845 H         1 UNK         0.3017 
     76 H76        28.0600   22.1841    1.3373 H         1 UNK         0.0873 
     77 H77        29.3456   22.8622   -0.5538 H         1 UNK         0.0745 
     78 H78        30.2946   23.9883    0.3531 H         1 UNK         0.0745 
     79 H79        33.3783   21.6725    0.1287 H         1 UNK         0.0705 
     80 H80        32.4205   22.3307   -1.1722 H         1 UNK         0.0705 
     81 H81        33.4376   23.1411    2.3813 H         1 UNK         0.1334 
     82 H82        33.6378   27.3579    1.6142 H         1 UNK         0.1417 
     83 H83        32.4576   24.6667   -1.5070 H         1 UNK         0.1562 
     84 H84        33.5305   27.1863   -1.8580 H         1 UNK         0.0748 
     85 H85        33.1283   28.2491   -0.5308 H         1 UNK         0.0748 
     86 H86        30.8334   28.2287    0.6179 H         1 UNK         0.0940 
     87 H87        30.1106   26.6591    0.4123 H         1 UNK         0.0940 
     88 H88        29.0058   29.1942   -0.9053 H         1 UNK         0.0703 
     89 H89        27.9654   26.4175   -0.6661 H         1 UNK         0.3081 
     90 H90        25.6203   26.9955   -3.3430 H         1 UNK         0.0719 
     91 H91        27.9746   25.1156   -2.7551 H         1 UNK         0.0809 
     92 H92        26.6912   24.8408   -3.9300 H         1 UNK         0.0809 
     93 H93        27.8260   26.1612   -4.1616 H         1 UNK         0.0809 
     94 H94        26.1794   25.3471   -0.8961 H         1 UNK         0.2990 
     95 H95        22.8062   25.4422    0.0487 H         1 UNK         0.0690 
     96 H96        22.8848   22.9575    0.1095 H         1 UNK         0.0788 
     97 H97        24.2294   22.9470   -1.0335 H         1 UNK         0.0788 
     98 H98        22.6443   23.5169   -1.5366 H         1 UNK         0.0788 
     99 H99        25.0657   23.9889    1.0546 H         1 UNK         0.2993 
    100 H100       26.7897   26.5920    2.5522 H         1 UNK         0.0949 
    101 H101       24.9441   26.6091    4.2367 H         1 UNK         0.0767 
    102 H102       24.8938   24.8512    4.2105 H         1 UNK         0.0767 
    103 H103       26.3281   25.6929    4.8036 H         1 UNK         0.0767 
    104 H104       27.0222   23.9124    3.2346 H         1 UNK         0.3013 
    105 H105       26.7297   29.7044   -0.0414 H         1 UNK         0.3121 
    106 H106       26.1215   29.1909    2.7103 H         1 UNK         0.0774 
    107 H107       24.3719   30.9386    2.3752 H         1 UNK         0.0815 
    108 H108       25.0774   31.3769    0.8254 H         1 UNK         0.0815 
    109 H109       24.3710   29.7789    1.0586 H         1 UNK         0.0815 
    110 H110       27.5261   32.0592    1.0648 H         1 UNK         0.2987 
    111 H111       27.9373   33.5307    3.5323 H         1 UNK         0.0949 
    112 H112       28.9842   34.0290    0.6904 H         1 UNK         0.0806 
    113 H113       27.4992   34.6889    1.3773 H         1 UNK         0.0806 
    114 H114       29.0575   35.1703    2.0253 H         1 UNK         0.0806 
    115 H115       29.8875   31.3784    1.5505 H         1 UNK         0.3010 
    116 H116       32.3946   31.9938    2.9968 H         1 UNK         0.0829 
    117 H117       32.5095   31.8680    0.5490 H         1 UNK         0.0813 
    118 H118       33.4121   30.5317    1.2342 H         1 UNK         0.0813 
    119 H119       31.8189   30.2520    0.5458 H         1 UNK         0.0813 
    120 H120       29.8872   30.3054    3.9914 H         1 UNK         0.3038 
    121 H121       30.6343   27.6729    4.3663 H         1 UNK         0.0769 
    122 H122       28.8535   29.4378    6.1278 H         1 UNK         0.0811 
    123 H123       28.8919   27.6791    6.1796 H         1 UNK         0.0811 
    124 H124       28.3380   28.4956    4.7305 H         1 UNK         0.0811 
    125 H125       31.8701   30.4075    6.1194 H         1 UNK         0.3204 
    126 H126       32.9198   29.0326    8.4194 H         1 UNK         0.0748 
    127 H127       34.2697   31.1232    8.6795 H         1 UNK         0.0771 
    128 H128       33.7644   31.6657    7.0851 H         1 UNK         0.0771 
    129 H129       32.5807   31.4942    8.3819 H         1 UNK         0.0771 
    130 H130       33.9495   29.1637    5.0780 H         1 UNK         0.2980 
    131 H131       35.5639   28.3584    3.9442 H         1 UNK         0.0545 
    132 H132       36.3710   30.6663    5.8567 H         1 UNK         0.3459 
    133 H133       38.1039   30.6830    5.6399 H         1 UNK         0.3459 
    134 H134       36.8279   26.4062    5.7941 H         1 UNK         0.0616 
    135 H135       35.1045   26.3373    5.9196 H         1 UNK         0.0616 
    136 H136       33.6823   24.7308    4.2344 H         1 UNK         0.0634 
    137 H137       33.5329   26.4459    3.9341 H         1 UNK         0.0634 
@<TRIPOS>BOND
     1    1    2 1    
     2    1   72 1    
     3    1   73 1    
     4    1   74 1    
     5    2    3 2    
     6    2    4 am   BACKBONE|DICT|INTERRES
     7    4    5 1    
     8    4   75 1    
     9    5    6 1    
    10    5   35 1    
    11    5   76 1    
    12    6    7 1    
    13    6   77 1    
    14    6   78 1    
    15    7    8 1    
    16    8    9 1    
    17    8   79 1    
    18    8   80 1    
    19    9   10 ar   
    20    9   14 ar   
    21   10   11 ar   
    22   10   81 1    
    23   11   12 ar   
    24   11   71 1    
    25   12   13 ar   
    26   12   82 1    
    27   13   14 ar   
    28   13   15 1    
    29   14   83 1    
    30   15   16 1    
    31   15   84 1    
    32   15   85 1    
    33   16   17 1    
    34   17   18 1    
    35   17   86 1    
    36   17   87 1    
    37   18   19 1    
    38   18   37 1    
    39   18   88 1    
    40   19   20 am   BACKBONE|DICT|INTERRES
    41   19   89 1    
    42   20   21 2    
    43   20   22 1    
    44   22   23 1    
    45   22   24 1    
    46   22   90 1    
    47   23   91 1    
    48   23   92 1    
    49   23   93 1    
    50   24   25 am   BACKBONE|DICT|INTERRES
    51   24   94 1    
    52   25   26 2    
    53   25   27 1    
    54   27   28 1    
    55   27   29 1    
    56   27   95 1    
    57   28   96 1    
    58   28   97 1    
    59   28   98 1    
    60   29   30 am   BACKBONE|DICT|INTERRES
    61   29   99 1    
    62   30   31 2    
    63   30   32 1    
    64   32   33 1    
    65   32   34 1    
    66   32  100 1    
    67   33  101 1    
    68   33  102 1    
    69   33  103 1    
    70   34   35 am   BACKBONE|DICT|INTERRES
    71   34  104 1    
    72   35   36 2    
    73   37   38 2    
    74   37   39 am   BACKBONE|DICT|INTERRES
    75   39   40 1    
    76   39  105 1    
    77   40   41 1    
    78   40   42 1    
    79   40  106 1    
    80   41  107 1    
    81   41  108 1    
    82   41  109 1    
    83   42   43 2    
    84   42   44 am   BACKBONE|DICT|INTERRES
    85   44   45 1    
    86   44  110 1    
    87   45   46 1    
    88   45   47 1    
    89   45  111 1    
    90   46  112 1    
    91   46  113 1    
    92   46  114 1    
    93   47   48 2    
    94   47   49 am   BACKBONE|DICT|INTERRES
    95   49   50 1    
    96   49  115 1    
    97   50   51 1    
    98   50   52 1    
    99   50  116 1    
   100   51  117 1    
   101   51  118 1    
   102   51  119 1    
   103   52   53 2    
   104   52   54 am   BACKBONE|DICT|INTERRES
   105   54   55 1    
   106   54  120 1    
   107   55   56 1    
   108   55   57 1    
   109   55  121 1    
   110   56  122 1    
   111   56  123 1    
   112   56  124 1    
   113   57   58 2    
   114   57   59 am   BACKBONE|DICT|INTERRES
   115   59   60 1    
   116   59  125 1    
   117   60   61 1    
   118   60   62 1    
   119   60  126 1    
   120   61  127 1    
   121   61  128 1    
   122   61  129 1    
   123   62   63 2    
   124   62   64 am   BACKBONE|DICT|INTERRES
   125   64   65 1    
   126   64  130 1    
   127   65   66 1    
   128   65   69 1    
   129   65  131 1    
   130   66   67 am   BACKBONE|DICT|INTERRES
   131   66   68 2    
   132   67  132 1    
   133   67  133 1    
   134   69   70 1    
   135   69  134 1    
   136   69  135 1    
   137   70   71 1    
   138   71  136 1    
   139   71  137 1    
@<TRIPOS>SUBSTRUCTURE
     1 UNK         1 GROUP             0       ****    0 ROOT    
