@<TRIPOS>MOLECULE
3R136
137   139    1
SMALL
USER_CHARGES


@<TRIPOS>ATOM
      1 CA         30.3895   22.5211   -4.7159 C.3       0 UNK        -0.1979 
      2 C          29.7895   23.6090   -3.8384 C.2       0 UNK         0.4864 
      3 O          29.2454   24.5862   -4.3557 O.2       0 UNK        -0.5359 
      4 N          29.8674   23.4465   -2.5115 N.am      1 UNK        -0.4318 
      5 CA         29.3617   24.3714   -1.4886 C.3       1 UNK         0.0824 
      6 C6         30.1313   24.2189   -0.1490 C.3       12 UNK        -0.0944 
      7 S7         30.2564   22.4974    0.4568 S.3       12 UNK        -0.2672 
      8 C8         31.8919   22.5170    1.2590 C.3       12 UNK         0.0333 
      9 C9         31.8962   23.4237    2.4804 C.ar      12 UNK        -0.0807 
     10 C10        32.4853   24.6904    2.4238 C.ar      12 UNK        -0.0894 
     11 C11        32.4472   25.5407    3.5330 C.ar      12 UNK        -0.0804 
     12 C12        31.8276   25.1098    4.7102 C.ar      12 UNK        -0.0824 
     13 C13        31.2271   23.8478    4.7735 C.ar      12 UNK        -0.0762 
     14 C14        31.2779   23.0043    3.6609 C.ar      12 UNK        -0.0782 
     15 C15        30.4693   23.4116    6.0180 C.3       12 UNK         0.0230 
     16 S16        28.6693   23.6077    5.7944 S.3       12 UNK        -0.2608 
     17 C17        28.5057   25.4248    5.7625 C.3       12 UNK        -0.0989 
     18 CA         28.4844   26.0068    4.3199 C.3       5 UNK         0.0716 
     19 N          27.3738   25.5369    3.4808 N.am      5 UNK        -0.4135 
     20 C          26.0621   25.6186    3.7312 C.2       4 UNK         0.5031 
     21 O          25.5755   26.1611    4.7242 O.2       4 UNK        -0.5229 
     22 CA         25.1596   25.0292    2.6359 C.3       4 UNK         0.0329 
     23 CB         23.6780   24.9210    3.0575 C.3       4 UNK        -0.2001 
     24 N          25.3061   25.7592    1.3700 N.am      4 UNK        -0.4303 
     25 C          24.9683   27.0353    1.1145 C.2       3 UNK         0.5044 
     26 O          24.5100   27.8014    1.9614 O.2       3 UNK        -0.5152 
     27 CA         25.1816   27.5736   -0.3187 C.3       3 UNK         0.0319 
     28 CB         26.1922   28.7329   -0.3197 C.3       3 UNK        -0.2001 
     29 N          25.6333   26.5662   -1.2809 N.am      3 UNK        -0.4354 
     30 C          24.9056   25.5444   -1.7529 C.2       2 UNK         0.4964 
     31 O          23.7059   25.3964   -1.5201 O.2       2 UNK        -0.5047 
     32 CA         25.6466   24.4852   -2.5933 C.3       2 UNK         0.0288 
     33 CB         25.2813   24.6253   -4.0801 C.3       2 UNK        -0.2113 
     34 N          27.1103   24.5008   -2.4616 N.am      2 UNK        -0.4145 
     35 C          27.8208   24.3145   -1.3389 C.2       1 UNK         0.5006 
     36 O          27.3000   24.1441   -0.2331 O.2       1 UNK        -0.5103 
     37 C          28.6823   27.5374    4.3298 C.2       5 UNK         0.5055 
     38 O          29.7159   27.9892    4.8185 O.2       5 UNK        -0.5220 
     39 N          27.7551   28.3143    3.7536 N.am      6 UNK        -0.4450 
     40 CA         27.8657   29.7698    3.5983 C.3       6 UNK         0.0367 
     41 CB         26.4509   30.3738    3.5772 C.3       6 UNK        -0.1929 
     42 C          28.6748   30.1906    2.3522 C.2       6 UNK         0.5070 
     43 O          28.6962   31.3763    2.0217 O.2       6 UNK        -0.5237 
     44 N          29.2932   29.2233    1.6606 N.am      7 UNK        -0.4739 
     45 CA         30.0851   29.4163    0.4462 C.3       7 UNK         0.0276 
     46 CB         30.4058   28.0385   -0.1575 C.3       7 UNK        -0.1927 
     47 C          31.3818   30.1973    0.7153 C.2       7 UNK         0.5013 
     48 O          32.0421   29.9508    1.7282 O.2       7 UNK        -0.5193 
     49 N          31.7386   31.0918   -0.2182 N.am      8 UNK        -0.4253 
     50 CA         32.9319   31.9465   -0.2064 C.3       8 UNK         0.0242 
     51 CB         34.1993   31.1003   -0.4746 C.3       8 UNK        -0.2000 
     52 C          33.0010   32.8074    1.0715 C.2       8 UNK         0.4948 
     53 O          32.1253   33.6492    1.2752 O.2       8 UNK        -0.5275 
     54 N          34.0164   32.5718    1.9117 N.am      9 UNK        -0.4246 
     55 CA         34.2125   33.2271    3.2074 C.3       9 UNK         0.0261 
     56 CB         35.7153   33.2052    3.5411 C.3       9 UNK        -0.1959 
     57 C          33.3908   32.5979    4.3525 C.2       9 UNK         0.5033 
     58 O          33.5101   33.0661    5.4850 O.2       9 UNK        -0.5390 
     59 N          32.6145   31.5406    4.0637 N.am      10 UNK        -0.4215 
     60 CA         31.8363   30.7117    4.9952 C.3       10 UNK         0.0240 
     61 CB         30.7911   31.5375    5.7753 C.3       10 UNK        -0.1982 
     62 C          32.6991   29.8095    5.9024 C.2       10 UNK         0.4970 
     63 O          32.1817   29.2613    6.8769 O.2       10 UNK        -0.4916 
     64 N          33.9770   29.6309    5.5343 N.am      11 UNK        -0.4279 
     65 CA         34.9545   28.7106    6.1381 C.3       11 UNK         0.1003 
     66 C          35.1740   28.9441    7.6659 C.2       11 UNK         0.5709 
     67 N          35.4871   27.9170    8.4460 N.am      11 UNK        -0.7358 
     68 O          35.1282   30.0757    8.1454 O.2       11 UNK        -0.4999 
     69 C69        34.6815   27.2316    5.7283 C.3       12 UNK        -0.0954 
     70 S70        34.7797   26.9935    3.9191 S.3       12 UNK        -0.2268 
     71 C71        33.0269   26.9431    3.4340 C.3       12 UNK         0.0203 
     72 H72        30.8335   21.7200   -4.1252 H         1 UNK         0.0888 
     73 H73        29.6199   22.0866   -5.3534 H         1 UNK         0.0888 
     74 H74        31.1654   22.9411   -5.3553 H         1 UNK         0.0888 
     75 H75        30.2923   22.6080   -2.1395 H         1 UNK         0.3017 
     76 H76        29.5709   25.3834   -1.8422 H         1 UNK         0.0873 
     77 H77        29.6960   24.8405    0.6358 H         1 UNK         0.0745 
     78 H78        31.1420   24.6039   -0.2914 H         1 UNK         0.0745 
     79 H79        32.1513   21.5008    1.5598 H         1 UNK         0.0705 
     80 H80        32.6512   22.8260    0.5388 H         1 UNK         0.0705 
     81 H81        32.9555   25.0252    1.5092 H         1 UNK         0.1334 
     82 H82        31.7688   25.7762    5.5597 H         1 UNK         0.1417 
     83 H83        30.7992   22.0349    3.6998 H         1 UNK         0.1562 
     84 H84        30.7983   23.9738    6.8934 H         1 UNK         0.0748 
     85 H85        30.6878   22.3637    6.2293 H         1 UNK         0.0748 
     86 H86        29.3266   25.8504    6.3428 H         1 UNK         0.0940 
     87 H87        27.5999   25.7000    6.3044 H         1 UNK         0.0940 
     88 H88        29.3646   25.6335    3.7999 H         1 UNK         0.0703 
     89 H89        27.6533   25.0791    2.6241 H         1 UNK         0.3081 
     90 H90        25.5159   24.0147    2.4483 H         1 UNK         0.0719 
     91 H91        23.0743   24.4713    2.2692 H         1 UNK         0.0809 
     92 H92        23.2457   25.8929    3.2971 H         1 UNK         0.0809 
     93 H93        23.5733   24.2953    3.9446 H         1 UNK         0.0809 
     94 H94        25.7441   25.2315    0.6219 H         1 UNK         0.2990 
     95 H95        24.2189   27.9587   -0.6612 H         1 UNK         0.0690 
     96 H96        26.3111   29.1572   -1.3169 H         1 UNK         0.0788 
     97 H97        27.1725   28.4079    0.0265 H         1 UNK         0.0788 
     98 H98        25.8655   29.5424    0.3336 H         1 UNK         0.0788 
     99 H99        26.6046   26.6079   -1.5497 H         1 UNK         0.2993 
    100 H100       25.3012   23.5096   -2.2447 H         1 UNK         0.0949 
    101 H101       24.2006   24.5833   -4.2250 H         1 UNK         0.0767 
    102 H102       25.6300   25.5732   -4.4923 H         1 UNK         0.0767 
    103 H103       25.7170   23.8209   -4.6733 H         1 UNK         0.0767 
    104 H104       27.6445   24.6346   -3.3175 H         1 UNK         0.3013 
    105 H105       26.9122   27.8824    3.4001 H         1 UNK         0.3121 
    106 H106       28.3870   30.1795    4.4657 H         1 UNK         0.0774 
    107 H107       26.4885   31.4634    3.5449 H         1 UNK         0.0815 
    108 H108       25.8823   30.0421    2.7088 H         1 UNK         0.0815 
    109 H109       25.8887   30.0986    4.4697 H         1 UNK         0.0815 
    110 H110       29.2684   28.2899    2.0394 H         1 UNK         0.2987 
    111 H111       29.4739   29.9775   -0.2642 H         1 UNK         0.0949 
    112 H112       29.4965   27.4875   -0.3957 H         1 UNK         0.0806 
    113 H113       30.9742   28.1394   -1.0831 H         1 UNK         0.0806 
    114 H114       31.0009   27.4285    0.5240 H         1 UNK         0.0806 
    115 H115       31.1140   31.2384   -0.9990 H         1 UNK         0.3010 
    116 H116       32.8231   32.6471   -1.0359 H         1 UNK         0.0829 
    117 H117       34.1246   30.5851   -1.4323 H         1 UNK         0.0813 
    118 H118       35.0915   31.7263   -0.5234 H         1 UNK         0.0813 
    119 H119       34.3631   30.3395    0.2897 H         1 UNK         0.0813 
    120 H120       34.6788   31.8508    1.6634 H         1 UNK         0.3038 
    121 H121       33.8993   34.2702    3.1256 H         1 UNK         0.0769 
    122 H122       35.9194   33.7357    4.4723 H         1 UNK         0.0811 
    123 H123       36.3019   33.6922    2.7618 H         1 UNK         0.0811 
    124 H124       36.0900   32.1876    3.6580 H         1 UNK         0.0811 
    125 H125       32.5819   31.2119    3.1007 H         1 UNK         0.3204 
    126 H126       31.2815   30.0250    4.3559 H         1 UNK         0.0748 
    127 H127       30.1049   30.8826    6.3140 H         1 UNK         0.0771 
    128 H128       31.2557   32.1932    6.5118 H         1 UNK         0.0771 
    129 H129       30.1909   32.1520    5.1042 H         1 UNK         0.0771 
    130 H130       34.3063   30.1425    4.7311 H         1 UNK         0.2980 
    131 H131       35.9119   28.9897    5.6970 H         1 UNK         0.0545 
    132 H132       35.5533   26.9824    8.0758 H         1 UNK         0.3459 
    133 H133       35.6515   28.0811    9.4268 H         1 UNK         0.3459 
    134 H134       33.7149   26.8984    6.1057 H         1 UNK         0.0616 
    135 H135       35.4272   26.5643    6.1618 H         1 UNK         0.0616 
    136 H136       32.9426   27.3045    2.4079 H         1 UNK         0.0634 
    137 H137       32.4432   27.6362    4.0391 H         1 UNK         0.0634 
@<TRIPOS>BOND
     1    1    2 1    
     2    1   72 1    
     3    1   73 1    
     4    1   74 1    
     5    2    3 2    
     6    2    4 am   BACKBONE|DICT|INTERRES
     7    4    5 1    
     8    4   75 1    
     9    5    6 1    
    10    5   35 1    
    11    5   76 1    
    12    6    7 1    
    13    6   77 1    
    14    6   78 1    
    15    7    8 1    
    16    8    9 1    
    17    8   79 1    
    18    8   80 1    
    19    9   10 ar   
    20    9   14 ar   
    21   10   11 ar   
    22   10   81 1    
    23   11   12 ar   
    24   11   71 1    
    25   12   13 ar   
    26   12   82 1    
    27   13   14 ar   
    28   13   15 1    
    29   14   83 1    
    30   15   16 1    
    31   15   84 1    
    32   15   85 1    
    33   16   17 1    
    34   17   18 1    
    35   17   86 1    
    36   17   87 1    
    37   18   19 1    
    38   18   37 1    
    39   18   88 1    
    40   19   20 am   BACKBONE|DICT|INTERRES
    41   19   89 1    
    42   20   21 2    
    43   20   22 1    
    44   22   23 1    
    45   22   24 1    
    46   22   90 1    
    47   23   91 1    
    48   23   92 1    
    49   23   93 1    
    50   24   25 am   BACKBONE|DICT|INTERRES
    51   24   94 1    
    52   25   26 2    
    53   25   27 1    
    54   27   28 1    
    55   27   29 1    
    56   27   95 1    
    57   28   96 1    
    58   28   97 1    
    59   28   98 1    
    60   29   30 am   BACKBONE|DICT|INTERRES
    61   29   99 1    
    62   30   31 2    
    63   30   32 1    
    64   32   33 1    
    65   32   34 1    
    66   32  100 1    
    67   33  101 1    
    68   33  102 1    
    69   33  103 1    
    70   34   35 am   BACKBONE|DICT|INTERRES
    71   34  104 1    
    72   35   36 2    
    73   37   38 2    
    74   37   39 am   BACKBONE|DICT|INTERRES
    75   39   40 1    
    76   39  105 1    
    77   40   41 1    
    78   40   42 1    
    79   40  106 1    
    80   41  107 1    
    81   41  108 1    
    82   41  109 1    
    83   42   43 2    
    84   42   44 am   BACKBONE|DICT|INTERRES
    85   44   45 1    
    86   44  110 1    
    87   45   46 1    
    88   45   47 1    
    89   45  111 1    
    90   46  112 1    
    91   46  113 1    
    92   46  114 1    
    93   47   48 2    
    94   47   49 am   BACKBONE|DICT|INTERRES
    95   49   50 1    
    96   49  115 1    
    97   50   51 1    
    98   50   52 1    
    99   50  116 1    
   100   51  117 1    
   101   51  118 1    
   102   51  119 1    
   103   52   53 2    
   104   52   54 am   BACKBONE|DICT|INTERRES
   105   54   55 1    
   106   54  120 1    
   107   55   56 1    
   108   55   57 1    
   109   55  121 1    
   110   56  122 1    
   111   56  123 1    
   112   56  124 1    
   113   57   58 2    
   114   57   59 am   BACKBONE|DICT|INTERRES
   115   59   60 1    
   116   59  125 1    
   117   60   61 1    
   118   60   62 1    
   119   60  126 1    
   120   61  127 1    
   121   61  128 1    
   122   61  129 1    
   123   62   63 2    
   124   62   64 am   BACKBONE|DICT|INTERRES
   125   64   65 1    
   126   64  130 1    
   127   65   66 1    
   128   65   69 1    
   129   65  131 1    
   130   66   67 am   BACKBONE|DICT|INTERRES
   131   66   68 2    
   132   67  132 1    
   133   67  133 1    
   134   69   70 1    
   135   69  134 1    
   136   69  135 1    
   137   70   71 1    
   138   71  136 1    
   139   71  137 1    
@<TRIPOS>SUBSTRUCTURE
     1 UNK         1 GROUP             0       ****    0 ROOT    
