@<TRIPOS>MOLECULE
3R136
137   139    1
SMALL
USER_CHARGES


@<TRIPOS>ATOM
      1 CA         26.7332   21.5769   -1.1101 C.3       0 UNK        -0.1979 
      2 C          27.3389   22.3528    0.0494 C.2       0 UNK         0.4864 
      3 O          26.7820   22.3316    1.1482 O.2       0 UNK        -0.5359 
      4 N          28.4600   23.0469   -0.1999 N.am      1 UNK        -0.4318 
      5 CA         29.2345   23.8747    0.7373 C.3       1 UNK         0.0824 
      6 C6         30.1670   23.0546    1.6686 C.3       12 UNK        -0.0944 
      7 S7         31.4406   22.1716    0.6993 S.3       12 UNK        -0.2672 
      8 C8         33.0131   22.8310    1.3687 C.3       12 UNK         0.0333 
      9 C9         33.2908   24.3168    1.1187 C.ar      12 UNK        -0.0807 
     10 C10        34.2054   24.9735    1.9498 C.ar      12 UNK        -0.0894 
     11 C11        34.4885   26.3331    1.7798 C.ar      12 UNK        -0.0804 
     12 C12        33.8353   27.0428    0.7670 C.ar      12 UNK        -0.0824 
     13 C13        32.9270   26.4057   -0.0840 C.ar      12 UNK        -0.0762 
     14 C14        32.6873   25.0359    0.0789 C.ar      12 UNK        -0.0782 
     15 C15        32.2205   27.2028   -1.1796 C.3       12 UNK         0.0230 
     16 S16        30.4201   26.9139   -1.1888 S.3       12 UNK        -0.2608 
     17 C17        29.7075   28.4977   -1.7670 C.3       12 UNK        -0.0989 
     18 CA         28.3796   28.8816   -1.0462 C.3       5 UNK         0.0716 
     19 N          27.4063   27.7872   -1.0565 N.am      5 UNK        -0.4135 
     20 C          26.4731   27.5805   -1.9892 C.2       4 UNK         0.5031 
     21 O          26.2275   28.3773   -2.8959 O.2       4 UNK        -0.5229 
     22 CA         25.6945   26.2568   -1.9299 C.3       4 UNK         0.0329 
     23 CB         26.4897   25.1543   -2.6499 C.3       4 UNK        -0.2001 
     24 N          25.3903   25.8077   -0.5639 N.am      4 UNK        -0.4303 
     25 C          24.1514   25.5567   -0.1108 C.2       3 UNK         0.5044 
     26 O          23.1320   25.8089   -0.7552 O.2       3 UNK        -0.5152 
     27 CA         23.9871   24.8753    1.2639 C.3       3 UNK         0.0319 
     28 CB         23.4023   23.4626    1.0923 C.3       3 UNK        -0.2001 
     29 N          25.2337   24.7693    2.0232 N.am      3 UNK        -0.4354 
     30 C          25.6751   25.6915    2.8903 C.2       2 UNK         0.4964 
     31 O          25.0461   26.7075    3.1841 O.2       2 UNK        -0.5047 
     32 CA         27.0632   25.4659    3.5249 C.3       2 UNK         0.0288 
     33 CB         26.9232   24.8540    4.9275 C.3       2 UNK        -0.2113 
     34 N          27.9771   24.6376    2.7282 N.am      2 UNK        -0.4145 
     35 C          28.3353   24.8937    1.4619 C.2       1 UNK         0.5006 
     36 O          27.9297   25.8727    0.8350 O.2       1 UNK        -0.5103 
     37 C          28.5601   29.3817    0.3992 C.2       5 UNK         0.5055 
     38 O          29.6884   29.6092    0.8356 O.2       5 UNK        -0.5220 
     39 N          27.4349   29.5385    1.1157 N.am      6 UNK        -0.4450 
     40 CA         27.3112   29.8212    2.5536 C.3       6 UNK         0.0367 
     41 CB         25.8448   30.1535    2.8732 C.3       6 UNK        -0.1929 
     42 C          28.2297   30.9204    3.1186 C.2       6 UNK         0.5070 
     43 O          28.7426   30.7638    4.2262 O.2       6 UNK        -0.5237 
     44 N          28.4284   32.0020    2.3527 N.am      7 UNK        -0.4739 
     45 CA         29.2918   33.1285    2.7216 C.3       7 UNK         0.0276 
     46 CB         29.0381   34.2997    1.7591 C.3       7 UNK        -0.1927 
     47 C          30.7894   32.7721    2.7530 C.2       7 UNK         0.5013 
     48 O          31.5227   33.3311    3.5690 O.2       7 UNK        -0.5193 
     49 N          31.2124   31.8525    1.8762 N.am      8 UNK        -0.4253 
     50 CA         32.5774   31.3288    1.8142 C.3       8 UNK         0.0242 
     51 CB         32.9360   31.0116    0.3550 C.3       8 UNK        -0.2000 
     52 C          32.7284   30.0852    2.7005 C.2       8 UNK         0.4948 
     53 O          33.7452   29.9458    3.3779 O.2       8 UNK        -0.5275 
     54 N          31.6933   29.2332    2.7296 N.am      9 UNK        -0.4246 
     55 CA         31.5969   28.0060    3.5285 C.3       9 UNK         0.0261 
     56 CB         30.4204   27.1670    3.0188 C.3       9 UNK        -0.1959 
     57 C          31.5317   28.2163    5.0552 C.2       9 UNK         0.5033 
     58 O          31.4911   27.2356    5.7985 O.2       9 UNK        -0.5390 
     59 N          31.5826   29.4770    5.5045 N.am      10 UNK        -0.4215 
     60 CA         31.8780   29.8891    6.8780 C.3       10 UNK         0.0240 
     61 CB         31.5444   31.3840    7.0187 C.3       10 UNK        -0.1982 
     62 C          33.3377   29.6083    7.3072 C.2       10 UNK         0.4970 
     63 O          33.6498   29.7858    8.4856 O.2       10 UNK        -0.4916 
     64 N          34.1955   29.1934    6.3614 N.am      11 UNK        -0.4279 
     65 CA         35.5746   28.7131    6.5417 C.3       11 UNK         0.1003 
     66 C          35.7724   27.6793    7.6908 C.2       11 UNK         0.5709 
     67 N          36.9324   27.6896    8.3347 N.am      11 UNK        -0.7358 
     68 O          34.9114   26.8496    7.9788 O.2       11 UNK        -0.4999 
     69 C69        36.1469   28.1731    5.1987 C.3       12 UNK        -0.0954 
     70 S70        35.1410   26.8394    4.4481 S.3       12 UNK        -0.2268 
     71 C71        35.5052   27.0404    2.6734 C.3       12 UNK         0.0203 
     72 H72        27.3172   21.6847   -2.0240 H         1 UNK         0.0888 
     73 H73        26.6810   20.5168   -0.8637 H         1 UNK         0.0888 
     74 H74        25.7223   21.9307   -1.3102 H         1 UNK         0.0888 
     75 H75        28.8450   23.0107   -1.1330 H         1 UNK         0.3017 
     76 H76        29.8763   24.4860    0.1090 H         1 UNK         0.0873 
     77 H77        30.6641   23.7062    2.3903 H         1 UNK         0.0745 
     78 H78        29.6000   22.3211    2.2442 H         1 UNK         0.0745 
     79 H79        33.0328   22.6298    2.4411 H         1 UNK         0.0705 
     80 H80        33.8325   22.2565    0.9350 H         1 UNK         0.0705 
     81 H81        34.7014   24.4245    2.7389 H         1 UNK         0.1334 
     82 H82        34.0396   28.0963    0.6386 H         1 UNK         0.1417 
     83 H83        32.0151   24.5384   -0.6043 H         1 UNK         0.1562 
     84 H84        32.6312   26.9236   -2.1505 H         1 UNK         0.0748 
     85 H85        32.4172   28.2663   -1.0556 H         1 UNK         0.0748 
     86 H86        29.5181   28.3989   -2.8367 H         1 UNK         0.0940 
     87 H87        30.4402   29.3008   -1.6751 H         1 UNK         0.0940 
     88 H88        27.9575   29.7346   -1.5814 H         1 UNK         0.0703 
     89 H89        27.5737   27.0729   -0.3467 H         1 UNK         0.3081 
     90 H90        24.7719   26.4156   -2.4920 H         1 UNK         0.0719 
     91 H91        27.4419   24.9573   -2.1563 H         1 UNK         0.0809 
     92 H92        25.9283   24.2209   -2.6875 H         1 UNK         0.0809 
     93 H93        26.7104   25.4403   -3.6792 H         1 UNK         0.0809 
     94 H94        26.1813   25.6391    0.0491 H         1 UNK         0.2990 
     95 H95        23.2652   25.4669    1.8310 H         1 UNK         0.0690 
     96 H96        23.2319   22.9846    2.0571 H         1 UNK         0.0788 
     97 H97        24.0644   22.8189    0.5124 H         1 UNK         0.0788 
     98 H98        22.4425   23.4940    0.5747 H         1 UNK         0.0788 
     99 H99        25.8092   23.9511    1.8399 H         1 UNK         0.2993 
    100 H100       27.5218   26.4500    3.6286 H         1 UNK         0.0949 
    101 H101       27.8875   24.7953    5.4330 H         1 UNK         0.0767 
    102 H102       26.2677   25.4601    5.5548 H         1 UNK         0.0767 
    103 H103       26.5002   23.8493    4.8881 H         1 UNK         0.0767 
    104 H104       28.2938   23.7783    3.1530 H         1 UNK         0.3013 
    105 H105       26.5675   29.3365    0.6398 H         1 UNK         0.3121 
    106 H106       27.5576   28.8972    3.0765 H         1 UNK         0.0774 
    107 H107       25.7061   30.3207    3.9424 H         1 UNK         0.0815 
    108 H108       25.5126   31.0545    2.3561 H         1 UNK         0.0815 
    109 H109       25.1787   29.3392    2.5885 H         1 UNK         0.0815 
    110 H110       27.9692   32.0455    1.4544 H         1 UNK         0.2987 
    111 H111       29.0140   33.4483    3.7286 H         1 UNK         0.0949 
    112 H112       29.2774   34.0358    0.7281 H         1 UNK         0.0806 
    113 H113       27.9973   34.6224    1.7916 H         1 UNK         0.0806 
    114 H114       29.6509   35.1624    2.0250 H         1 UNK         0.0806 
    115 H115       30.5223   31.3821    1.3001 H         1 UNK         0.3010 
    116 H116       33.2796   32.0830    2.1767 H         1 UNK         0.0829 
    117 H117       32.9344   31.9150   -0.2548 H         1 UNK         0.0813 
    118 H118       33.9315   30.5721    0.2803 H         1 UNK         0.0813 
    119 H119       32.2278   30.3125   -0.0874 H         1 UNK         0.0813 
    120 H120       30.9106   29.4135    2.1013 H         1 UNK         0.3038 
    121 H121       32.5036   27.4321    3.3452 H         1 UNK         0.0769 
    122 H122       29.4771   27.6933    3.1428 H         1 UNK         0.0811 
    123 H123       30.3486   26.2215    3.5572 H         1 UNK         0.0811 
    124 H124       30.5381   26.9315    1.9607 H         1 UNK         0.0811 
    125 H125       31.5684   30.2116    4.8118 H         1 UNK         0.3204 
    126 H126       31.2280   29.3238    7.5486 H         1 UNK         0.0748 
    127 H127       31.7026   31.7275    8.0420 H         1 UNK         0.0771 
    128 H128       32.1667   31.9990    6.3668 H         1 UNK         0.0771 
    129 H129       30.5015   31.5822    6.7689 H         1 UNK         0.0771 
    130 H130       33.8572   29.1343    5.4092 H         1 UNK         0.2980 
    131 H131       36.1536   29.5975    6.8126 H         1 UNK         0.0545 
    132 H132       37.6542   28.3537    8.1013 H         1 UNK         0.3459 
    133 H133       37.0880   27.0200    9.0720 H         1 UNK         0.3459 
    134 H134       36.2144   28.9990    4.4892 H         1 UNK         0.0616 
    135 H135       37.1688   27.8113    5.3260 H         1 UNK         0.0616 
    136 H136       35.5375   28.1043    2.4352 H         1 UNK         0.0634 
    137 H137       36.5008   26.6458    2.4678 H         1 UNK         0.0634 
@<TRIPOS>BOND
     1    1    2 1    
     2    1   72 1    
     3    1   73 1    
     4    1   74 1    
     5    2    3 2    
     6    2    4 am   BACKBONE|DICT|INTERRES
     7    4    5 1    
     8    4   75 1    
     9    5    6 1    
    10    5   35 1    
    11    5   76 1    
    12    6    7 1    
    13    6   77 1    
    14    6   78 1    
    15    7    8 1    
    16    8    9 1    
    17    8   79 1    
    18    8   80 1    
    19    9   10 ar   
    20    9   14 ar   
    21   10   11 ar   
    22   10   81 1    
    23   11   12 ar   
    24   11   71 1    
    25   12   13 ar   
    26   12   82 1    
    27   13   14 ar   
    28   13   15 1    
    29   14   83 1    
    30   15   16 1    
    31   15   84 1    
    32   15   85 1    
    33   16   17 1    
    34   17   18 1    
    35   17   86 1    
    36   17   87 1    
    37   18   19 1    
    38   18   37 1    
    39   18   88 1    
    40   19   20 am   BACKBONE|DICT|INTERRES
    41   19   89 1    
    42   20   21 2    
    43   20   22 1    
    44   22   23 1    
    45   22   24 1    
    46   22   90 1    
    47   23   91 1    
    48   23   92 1    
    49   23   93 1    
    50   24   25 am   BACKBONE|DICT|INTERRES
    51   24   94 1    
    52   25   26 2    
    53   25   27 1    
    54   27   28 1    
    55   27   29 1    
    56   27   95 1    
    57   28   96 1    
    58   28   97 1    
    59   28   98 1    
    60   29   30 am   BACKBONE|DICT|INTERRES
    61   29   99 1    
    62   30   31 2    
    63   30   32 1    
    64   32   33 1    
    65   32   34 1    
    66   32  100 1    
    67   33  101 1    
    68   33  102 1    
    69   33  103 1    
    70   34   35 am   BACKBONE|DICT|INTERRES
    71   34  104 1    
    72   35   36 2    
    73   37   38 2    
    74   37   39 am   BACKBONE|DICT|INTERRES
    75   39   40 1    
    76   39  105 1    
    77   40   41 1    
    78   40   42 1    
    79   40  106 1    
    80   41  107 1    
    81   41  108 1    
    82   41  109 1    
    83   42   43 2    
    84   42   44 am   BACKBONE|DICT|INTERRES
    85   44   45 1    
    86   44  110 1    
    87   45   46 1    
    88   45   47 1    
    89   45  111 1    
    90   46  112 1    
    91   46  113 1    
    92   46  114 1    
    93   47   48 2    
    94   47   49 am   BACKBONE|DICT|INTERRES
    95   49   50 1    
    96   49  115 1    
    97   50   51 1    
    98   50   52 1    
    99   50  116 1    
   100   51  117 1    
   101   51  118 1    
   102   51  119 1    
   103   52   53 2    
   104   52   54 am   BACKBONE|DICT|INTERRES
   105   54   55 1    
   106   54  120 1    
   107   55   56 1    
   108   55   57 1    
   109   55  121 1    
   110   56  122 1    
   111   56  123 1    
   112   56  124 1    
   113   57   58 2    
   114   57   59 am   BACKBONE|DICT|INTERRES
   115   59   60 1    
   116   59  125 1    
   117   60   61 1    
   118   60   62 1    
   119   60  126 1    
   120   61  127 1    
   121   61  128 1    
   122   61  129 1    
   123   62   63 2    
   124   62   64 am   BACKBONE|DICT|INTERRES
   125   64   65 1    
   126   64  130 1    
   127   65   66 1    
   128   65   69 1    
   129   65  131 1    
   130   66   67 am   BACKBONE|DICT|INTERRES
   131   66   68 2    
   132   67  132 1    
   133   67  133 1    
   134   69   70 1    
   135   69  134 1    
   136   69  135 1    
   137   70   71 1    
   138   71  136 1    
   139   71  137 1    
@<TRIPOS>SUBSTRUCTURE
     1 UNK         1 GROUP             0       ****    0 ROOT    
