@<TRIPOS>MOLECULE
3R136
137   139    1
SMALL
USER_CHARGES


@<TRIPOS>ATOM
      1 CA         33.1992   19.6288   -1.7597 C.3       0 UNK        -0.1979 
      2 C          32.4470   20.9404   -1.5868 C.2       0 UNK         0.4864 
      3 O          32.7398   21.9101   -2.2884 O.2       0 UNK        -0.5359 
      4 N          31.4867   20.9803   -0.6538 N.am      1 UNK        -0.4318 
      5 CA         30.6193   22.1336   -0.3983 C.3       1 UNK         0.0824 
      6 C6         29.9122   22.0038    0.9753 C.3       12 UNK        -0.0944 
      7 S7         29.2385   23.5907    1.5804 S.3       12 UNK        -0.2672 
      8 C8         29.8040   23.5706    3.3081 C.3       12 UNK         0.0333 
      9 C9         29.2804   24.7774    4.0696 C.ar      12 UNK        -0.0807 
     10 C10        30.1124   25.8733    4.3191 C.ar      12 UNK        -0.0894 
     11 C11        29.6323   26.9798    5.0268 C.ar      12 UNK        -0.0804 
     12 C12        28.3108   26.9857    5.4828 C.ar      12 UNK        -0.0824 
     13 C13        27.4698   25.8958    5.2379 C.ar      12 UNK        -0.0762 
     14 C14        27.9615   24.7927    4.5340 C.ar      12 UNK        -0.0782 
     15 C15        26.0293   25.9098    5.7290 C.3       12 UNK         0.0230 
     16 S16        24.8579   26.2751    4.3826 S.3       12 UNK        -0.2608 
     17 C17        25.3105   27.9910    3.9509 C.3       12 UNK        -0.0989 
     18 CA         26.2381   28.0596    2.7049 C.3       5 UNK         0.0716 
     19 N          25.6671   27.4300    1.5049 N.am      5 UNK        -0.4135 
     20 C          24.5596   27.8004    0.8431 C.2       4 UNK         0.5031 
     21 O          23.8565   28.7606    1.1592 O.2       4 UNK        -0.5229 
     22 CA         24.1894   26.9855   -0.4109 C.3       4 UNK         0.0329 
     23 CB         24.5027   27.7926   -1.6825 C.3       4 UNK        -0.2001 
     24 N          24.8853   25.6978   -0.4882 N.am      4 UNK        -0.4303 
     25 C          24.5453   24.5920    0.1882 C.2       3 UNK         0.5044 
     26 O          23.5610   24.5275    0.9251 O.2       3 UNK        -0.5152 
     27 CA         25.4710   23.3630    0.0653 C.3       3 UNK         0.0319 
     28 CB         24.6948   22.0964   -0.3510 C.3       3 UNK        -0.2001 
     29 N          26.6640   23.5623   -0.7744 N.am      3 UNK        -0.4354 
     30 C          26.7358   23.7134   -2.1083 C.2       2 UNK         0.4964 
     31 O          25.7551   23.7269   -2.8512 O.2       2 UNK        -0.5047 
     32 CA         28.1339   23.9355   -2.7195 C.3       2 UNK         0.0288 
     33 CB         28.3067   25.4075   -3.1323 C.3       2 UNK        -0.2113 
     34 N          29.2264   23.5665   -1.8142 N.am      2 UNK        -0.4145 
     35 C          29.5892   22.3073   -1.5346 C.2       1 UNK         0.5006 
     36 O          29.1044   21.3148   -2.0856 O.2       1 UNK        -0.5103 
     37 C          26.7866   29.4819    2.4401 C.2       5 UNK         0.5055 
     38 O          26.9222   30.2743    3.3735 O.2       5 UNK        -0.5220 
     39 N          27.1278   29.7720    1.1763 N.am      6 UNK        -0.4450 
     40 CA         27.6980   31.0434    0.7218 C.3       6 UNK         0.0367 
     41 CB         27.2438   31.2915   -0.7271 C.3       6 UNK        -0.1929 
     42 C          29.2351   31.0854    0.8219 C.2       6 UNK         0.5070 
     43 O          29.8289   32.1185    0.5088 O.2       6 UNK        -0.5237 
     44 N          29.8636   29.9739    1.2313 N.am      7 UNK        -0.4739 
     45 CA         31.3130   29.7777    1.3260 C.3       7 UNK         0.0276 
     46 CB         31.6037   28.2656    1.3695 C.3       7 UNK        -0.1927 
     47 C          31.9554   30.5353    2.5056 C.2       7 UNK         0.5013 
     48 O          32.5997   29.9244    3.3608 O.2       7 UNK        -0.5193 
     49 N          31.8057   31.8654    2.5212 N.am      8 UNK        -0.4253 
     50 CA         32.3618   32.7766    3.5288 C.3       8 UNK         0.0242 
     51 CB         31.9265   34.2153    3.2102 C.3       8 UNK        -0.2000 
     52 C          33.8928   32.6937    3.6726 C.2       8 UNK         0.4948 
     53 O          34.4057   32.9043    4.7701 O.2       8 UNK        -0.5275 
     54 N          34.5903   32.3375    2.5847 N.am      9 UNK        -0.4246 
     55 CA         36.0275   32.0554    2.5705 C.3       9 UNK         0.0261 
     56 CB         36.5046   31.9458    1.1131 C.3       9 UNK        -0.1959 
     57 C          36.4209   30.7908    3.3607 C.2       9 UNK         0.5033 
     58 O          37.5621   30.7114    3.8182 O.2       9 UNK        -0.5390 
     59 N          35.4938   29.8321    3.5046 N.am      10 UNK        -0.4215 
     60 CA         35.6834   28.6095    4.2852 C.3       10 UNK         0.0240 
     61 CB         34.9277   27.4424    3.6253 C.3       10 UNK        -0.1982 
     62 C          35.2211   28.8090    5.7349 C.2       10 UNK         0.4970 
     63 O          35.9525   28.4352    6.6529 O.2       10 UNK        -0.4916 
     64 N          34.0242   29.3848    5.9159 N.am      11 UNK        -0.4279 
     65 CA         33.4349   29.6513    7.2382 C.3       11 UNK         0.1003 
     66 C          34.0957   30.8202    8.0234 C.2       11 UNK         0.5709 
     67 N          34.7360   31.7884    7.3821 N.am      11 UNK        -0.7358 
     68 O          34.0373   30.8391    9.2508 O.2       11 UNK        -0.4999 
     69 C69        31.8951   29.8182    7.1560 C.3       12 UNK        -0.0954 
     70 S70        31.0451   28.2093    7.0448 S.3       12 UNK        -0.2268 
     71 C71        30.5354   28.1710    5.3030 C.3       12 UNK         0.0203 
     72 H72        32.8479   18.8627   -1.0686 H         1 UNK         0.0888 
     73 H73        33.0706   19.2540   -2.7748 H         1 UNK         0.0888 
     74 H74        34.2640   19.7806   -1.5842 H         1 UNK         0.0888 
     75 H75        31.2689   20.1429   -0.1329 H         1 UNK         0.3017 
     76 H76        31.2609   23.0178   -0.3739 H         1 UNK         0.0873 
     77 H77        29.1089   21.2645    0.9428 H         1 UNK         0.0745 
     78 H78        30.6244   21.6327    1.7144 H         1 UNK         0.0745 
     79 H79        30.8948   23.5455    3.3322 H         1 UNK         0.0705 
     80 H80        29.4607   22.6550    3.7925 H         1 UNK         0.0705 
     81 H81        31.1344   25.8632    3.9654 H         1 UNK         0.1334 
     82 H82        27.9406   27.8420    6.0301 H         1 UNK         0.1417 
     83 H83        27.3132   23.9492    4.3377 H         1 UNK         0.1562 
     84 H84        25.8990   26.6360    6.5331 H         1 UNK         0.0748 
     85 H85        25.7824   24.9369    6.1565 H         1 UNK         0.0748 
     86 H86        25.7825   28.4554    4.8181 H         1 UNK         0.0940 
     87 H87        24.3938   28.5567    3.7780 H         1 UNK         0.0940 
     88 H88        27.1268   27.4699    2.9305 H         1 UNK         0.0703 
     89 H89        26.1576   26.6146    1.1697 H         1 UNK         0.3081 
     90 H90        23.1132   26.8022   -0.3769 H         1 UNK         0.0719 
     91 H91        24.1868   27.2577   -2.5785 H         1 UNK         0.0809 
     92 H92        25.5679   28.0065   -1.7778 H         1 UNK         0.0809 
     93 H93        23.9778   28.7492   -1.6779 H         1 UNK         0.0809 
     94 H94        25.6789   25.6427   -1.1091 H         1 UNK         0.2990 
     95 H95        25.8554   23.1881    1.0715 H         1 UNK         0.0690 
     96 H96        25.3513   21.2277   -0.4019 H         1 UNK         0.0788 
     97 H97        24.2141   22.2128   -1.3227 H         1 UNK         0.0788 
     98 H98        23.9096   21.8656    0.3700 H         1 UNK         0.0788 
     99 H99        27.5357   23.5923   -0.2615 H         1 UNK         0.2993 
    100 H100       28.1989   23.3152   -3.6164 H         1 UNK         0.0949 
    101 H101       27.5251   25.7135   -3.8295 H         1 UNK         0.0767 
    102 H102       28.2598   26.0791   -2.2740 H         1 UNK         0.0767 
    103 H103       29.2622   25.5684   -3.6322 H         1 UNK         0.0767 
    104 H104       29.6749   24.3218   -1.3149 H         1 UNK         0.3013 
    105 H105       26.9894   29.0641    0.4705 H         1 UNK         0.3121 
    106 H106       27.3115   31.8548    1.3424 H         1 UNK         0.0774 
    107 H107       27.6007   32.2565   -1.0898 H         1 UNK         0.0815 
    108 H108       27.6232   30.5280   -1.4075 H         1 UNK         0.0815 
    109 H109       26.1564   31.3018   -0.8057 H         1 UNK         0.0815 
    110 H110       29.2910   29.1871    1.4963 H         1 UNK         0.2987 
    111 H111       31.7689   30.1732    0.4156 H         1 UNK         0.0949 
    112 H112       31.2118   27.7599    0.4869 H         1 UNK         0.0806 
    113 H113       32.6769   28.0726    1.3977 H         1 UNK         0.0806 
    114 H114       31.1631   27.7944    2.2478 H         1 UNK         0.0806 
    115 H115       31.2258   32.2716    1.7905 H         1 UNK         0.3010 
    116 H116       31.9331   32.4936    4.4925 H         1 UNK         0.0829 
    117 H117       30.8402   34.3085    3.2025 H         1 UNK         0.0813 
    118 H118       32.3051   34.9130    3.9587 H         1 UNK         0.0813 
    119 H119       32.2985   34.5440    2.2389 H         1 UNK         0.0813 
    120 H120       34.0879   32.2003    1.7199 H         1 UNK         0.3038 
    121 H121       36.5387   32.9015    3.0351 H         1 UNK         0.0769 
    122 H122       36.0150   31.1249    0.5874 H         1 UNK         0.0811 
    123 H123       37.5797   31.7659    1.0675 H         1 UNK         0.0811 
    124 H124       36.3090   32.8649    0.5603 H         1 UNK         0.0811 
    125 H125       34.5549   29.9964    3.1566 H         1 UNK         0.3204 
    126 H126       36.7437   28.3477    4.3023 H         1 UNK         0.0748 
    127 H127       35.1087   26.5111    4.1636 H         1 UNK         0.0771 
    128 H128       33.8496   27.6029    3.6135 H         1 UNK         0.0771 
    129 H129       35.2546   27.2904    2.5966 H         1 UNK         0.0771 
    130 H130       33.4721   29.6470    5.1060 H         1 UNK         0.2980 
    131 H131       33.6300   28.7696    7.8527 H         1 UNK         0.0545 
    132 H132       34.7133   31.8661    6.3707 H         1 UNK         0.3459 
    133 H133       35.1620   32.5250    7.9206 H         1 UNK         0.3459 
    134 H134       31.6144   30.4617    6.3202 H         1 UNK         0.0616 
    135 H135       31.5034   30.3041    8.0519 H         1 UNK         0.0616 
    136 H136       31.4301   28.1173    4.6846 H         1 UNK         0.0634 
    137 H137       30.0182   29.0954    5.0411 H         1 UNK         0.0634 
@<TRIPOS>BOND
     1    1    2 1    
     2    1   72 1    
     3    1   73 1    
     4    1   74 1    
     5    2    3 2    
     6    2    4 am   BACKBONE|DICT|INTERRES
     7    4    5 1    
     8    4   75 1    
     9    5    6 1    
    10    5   35 1    
    11    5   76 1    
    12    6    7 1    
    13    6   77 1    
    14    6   78 1    
    15    7    8 1    
    16    8    9 1    
    17    8   79 1    
    18    8   80 1    
    19    9   10 ar   
    20    9   14 ar   
    21   10   11 ar   
    22   10   81 1    
    23   11   12 ar   
    24   11   71 1    
    25   12   13 ar   
    26   12   82 1    
    27   13   14 ar   
    28   13   15 1    
    29   14   83 1    
    30   15   16 1    
    31   15   84 1    
    32   15   85 1    
    33   16   17 1    
    34   17   18 1    
    35   17   86 1    
    36   17   87 1    
    37   18   19 1    
    38   18   37 1    
    39   18   88 1    
    40   19   20 am   BACKBONE|DICT|INTERRES
    41   19   89 1    
    42   20   21 2    
    43   20   22 1    
    44   22   23 1    
    45   22   24 1    
    46   22   90 1    
    47   23   91 1    
    48   23   92 1    
    49   23   93 1    
    50   24   25 am   BACKBONE|DICT|INTERRES
    51   24   94 1    
    52   25   26 2    
    53   25   27 1    
    54   27   28 1    
    55   27   29 1    
    56   27   95 1    
    57   28   96 1    
    58   28   97 1    
    59   28   98 1    
    60   29   30 am   BACKBONE|DICT|INTERRES
    61   29   99 1    
    62   30   31 2    
    63   30   32 1    
    64   32   33 1    
    65   32   34 1    
    66   32  100 1    
    67   33  101 1    
    68   33  102 1    
    69   33  103 1    
    70   34   35 am   BACKBONE|DICT|INTERRES
    71   34  104 1    
    72   35   36 2    
    73   37   38 2    
    74   37   39 am   BACKBONE|DICT|INTERRES
    75   39   40 1    
    76   39  105 1    
    77   40   41 1    
    78   40   42 1    
    79   40  106 1    
    80   41  107 1    
    81   41  108 1    
    82   41  109 1    
    83   42   43 2    
    84   42   44 am   BACKBONE|DICT|INTERRES
    85   44   45 1    
    86   44  110 1    
    87   45   46 1    
    88   45   47 1    
    89   45  111 1    
    90   46  112 1    
    91   46  113 1    
    92   46  114 1    
    93   47   48 2    
    94   47   49 am   BACKBONE|DICT|INTERRES
    95   49   50 1    
    96   49  115 1    
    97   50   51 1    
    98   50   52 1    
    99   50  116 1    
   100   51  117 1    
   101   51  118 1    
   102   51  119 1    
   103   52   53 2    
   104   52   54 am   BACKBONE|DICT|INTERRES
   105   54   55 1    
   106   54  120 1    
   107   55   56 1    
   108   55   57 1    
   109   55  121 1    
   110   56  122 1    
   111   56  123 1    
   112   56  124 1    
   113   57   58 2    
   114   57   59 am   BACKBONE|DICT|INTERRES
   115   59   60 1    
   116   59  125 1    
   117   60   61 1    
   118   60   62 1    
   119   60  126 1    
   120   61  127 1    
   121   61  128 1    
   122   61  129 1    
   123   62   63 2    
   124   62   64 am   BACKBONE|DICT|INTERRES
   125   64   65 1    
   126   64  130 1    
   127   65   66 1    
   128   65   69 1    
   129   65  131 1    
   130   66   67 am   BACKBONE|DICT|INTERRES
   131   66   68 2    
   132   67  132 1    
   133   67  133 1    
   134   69   70 1    
   135   69  134 1    
   136   69  135 1    
   137   70   71 1    
   138   71  136 1    
   139   71  137 1    
@<TRIPOS>SUBSTRUCTURE
     1 UNK         1 GROUP             0       ****    0 ROOT    
