@<TRIPOS>MOLECULE
3R136
137   139    1
SMALL
USER_CHARGES


@<TRIPOS>ATOM
      1 CA         28.9239   19.9197    2.7278 C.3       0 UNK        -0.1979 
      2 C          28.8162   20.1326    1.2250 C.2       0 UNK         0.4864 
      3 O          29.4578   19.4150    0.4563 O.2       0 UNK        -0.5359 
      4 N          28.0146   21.1145    0.8039 N.am      1 UNK        -0.4318 
      5 CA         27.7889   21.4995   -0.5878 C.3       1 UNK         0.0824 
      6 C6         28.9877   22.2661   -1.2165 C.3       12 UNK        -0.0944 
      7 S7         29.5213   23.7346   -0.2650 S.3       12 UNK        -0.2672 
      8 C8         31.1281   23.1506    0.3537 C.3       12 UNK         0.0333 
      9 C9         31.6582   24.0609    1.4469 C.ar      12 UNK        -0.0807 
     10 C10        32.5463   25.0964    1.1425 C.ar      12 UNK        -0.0894 
     11 C11        33.0437   25.9293    2.1509 C.ar      12 UNK        -0.0804 
     12 C12        32.6383   25.7137    3.4742 C.ar      12 UNK        -0.0824 
     13 C13        31.7378   24.6916    3.7860 C.ar      12 UNK        -0.0762 
     14 C14        31.2606   23.8601    2.7702 C.ar      12 UNK        -0.0782 
     15 C15        31.2527   24.5031    5.2144 C.3       12 UNK         0.0230 
     16 S16        29.4899   24.9299    5.3751 S.3       12 UNK        -0.2608 
     17 C17        29.4973   26.7188    4.9978 C.3       12 UNK        -0.0989 
     18 CA         29.1905   27.0639    3.5096 C.3       5 UNK         0.0716 
     19 N          28.0292   26.3631    2.9481 N.am      5 UNK        -0.4135 
     20 C          26.7652   26.3974    3.3912 C.2       4 UNK         0.5031 
     21 O          26.3965   27.0393    4.3764 O.2       4 UNK        -0.5229 
     22 CA         25.7403   25.6042    2.5521 C.3       4 UNK         0.0329 
     23 CB         24.2823   26.0017    2.8638 C.3       4 UNK        -0.2001 
     24 N          25.9835   25.6748    1.1024 N.am      4 UNK        -0.4303 
     25 C          26.0961   26.7898    0.3587 C.2       3 UNK         0.5044 
     26 O          26.0767   27.9232    0.8352 O.2       3 UNK        -0.5152 
     27 CA         26.3026   26.6420   -1.1610 C.3       3 UNK         0.0319 
     28 CB         27.7325   27.0562   -1.5487 C.3       3 UNK        -0.2001 
     29 N          26.0364   25.2923   -1.6620 N.am      3 UNK        -0.4354 
     30 C          24.8158   24.7485   -1.7832 C.2       2 UNK         0.4964 
     31 O          23.7703   25.3660   -1.5790 O.2       2 UNK        -0.5047 
     32 CA         24.7415   23.2583   -2.1713 C.3       2 UNK         0.0288 
     33 CB         24.4011   23.1092   -3.6634 C.3       2 UNK        -0.2113 
     34 N          25.9580   22.4892   -1.8771 N.am      2 UNK        -0.4145 
     35 C          26.4831   22.3077   -0.6564 C.2       1 UNK         0.5006 
     36 O          25.9999   22.7849    0.3762 O.2       1 UNK        -0.5103 
     37 C          29.1745   28.5942    3.2762 C.2       5 UNK         0.5055 
     38 O          30.0765   29.2785    3.7616 O.2       5 UNK        -0.5220 
     39 N          28.2012   29.1349    2.5246 N.am      6 UNK        -0.4450 
     40 CA         28.1061   30.5713    2.2343 C.3       6 UNK         0.0367 
     41 CB         26.6880   30.9143    1.7523 C.3       6 UNK        -0.1929 
     42 C          29.1500   31.0618    1.2153 C.2       6 UNK         0.5070 
     43 O          29.3675   32.2706    1.1323 O.2       6 UNK        -0.5237 
     44 N          29.7838   30.1270    0.4873 N.am      7 UNK        -0.4739 
     45 CA         30.7600   30.3324   -0.5929 C.3       7 UNK         0.0276 
     46 CB         31.3527   28.9706   -0.9935 C.3       7 UNK        -0.1927 
     47 C          31.8874   31.3348   -0.2842 C.2       7 UNK         0.5013 
     48 O          32.2847   32.0869   -1.1752 O.2       7 UNK        -0.5193 
     49 N          32.3442   31.3556    0.9723 N.am      8 UNK        -0.4253 
     50 CA         33.2242   32.3839    1.5217 C.3       8 UNK         0.0242 
     51 CB         34.7041   31.9975    1.3262 C.3       8 UNK        -0.2000 
     52 C          32.8407   32.6684    2.9818 C.2       8 UNK         0.4948 
     53 O          33.7255   32.7760    3.8312 O.2       8 UNK        -0.5275 
     54 N          31.5255   32.7730    3.2433 N.am      9 UNK        -0.4246 
     55 CA         30.8887   33.1372    4.5189 C.3       9 UNK         0.0261 
     56 CB         31.0207   34.6574    4.7475 C.3       9 UNK        -0.1959 
     57 C          31.3995   32.3160    5.7210 C.2       9 UNK         0.5033 
     58 O          32.0509   32.8665    6.6104 O.2       9 UNK        -0.5390 
     59 N          31.1315   31.0036    5.6870 N.am      10 UNK        -0.4215 
     60 CA         31.5923   29.9419    6.5943 C.3       10 UNK         0.0240 
     61 CB         31.4269   30.2948    8.0874 C.3       10 UNK        -0.1982 
     62 C          33.0041   29.4232    6.2682 C.2       10 UNK         0.4970 
     63 O          33.3620   28.3514    6.7577 O.2       10 UNK        -0.4916 
     64 N          33.7583   30.1486    5.4302 N.am      11 UNK        -0.4279 
     65 CA         35.0715   29.7686    4.8829 C.3       11 UNK         0.1003 
     66 C          36.2278   29.7221    5.9276 C.2       11 UNK         0.5709 
     67 N          36.0788   30.3192    7.1044 N.am      11 UNK        -0.7358 
     68 O          37.2912   29.1669    5.6603 O.2       11 UNK        -0.4999 
     69 C69        35.0115   28.4967    3.9864 C.3       12 UNK        -0.0954 
     70 S70        33.7458   28.6007    2.6715 S.3       12 UNK        -0.2268 
     71 C71        34.0327   27.0338    1.7862 C.3       12 UNK         0.0203 
     72 H72        29.9595   20.0308    3.0484 H         1 UNK         0.0888 
     73 H73        28.3190   20.6351    3.2849 H         1 UNK         0.0888 
     74 H74        28.5907   18.9160    2.9899 H         1 UNK         0.0888 
     75 H75        27.4673   21.6600    1.4589 H         1 UNK         0.3017 
     76 H76        27.6208   20.5853   -1.1615 H         1 UNK         0.0873 
     77 H77        28.7544   22.5863   -2.2333 H         1 UNK         0.0745 
     78 H78        29.8311   21.5831   -1.3277 H         1 UNK         0.0745 
     79 H79        31.8356   23.0942   -0.4750 H         1 UNK         0.0705 
     80 H80        31.0276   22.1363    0.7424 H         1 UNK         0.0705 
     81 H81        32.8531   25.2497    0.1167 H         1 UNK         0.1334 
     82 H82        33.0035   26.3529    4.2646 H         1 UNK         0.1417 
     83 H83        30.5606   23.0706    3.0085 H         1 UNK         0.1562 
     84 H84        31.8374   25.1039    5.9132 H         1 UNK         0.0748 
     85 H85        31.3950   23.4624    5.5090 H         1 UNK         0.0748 
     86 H86        30.4697   27.1223    5.2831 H         1 UNK         0.0940 
     87 H87        28.7708   27.1988    5.6559 H         1 UNK         0.0940 
     88 H88        30.0327   26.7117    2.9147 H         1 UNK         0.0703 
     89 H89        28.2199   25.8019    2.1303 H         1 UNK         0.3081 
     90 H90        25.8653   24.5570    2.8319 H         1 UNK         0.0719 
     91 H91        24.0965   27.0542    2.6460 H         1 UNK         0.0809 
     92 H92        23.5773   25.4093    2.2806 H         1 UNK         0.0809 
     93 H93        24.0471   25.8397    3.9165 H         1 UNK         0.0809 
     94 H94        26.0286   24.7750    0.6337 H         1 UNK         0.2990 
     95 H95        25.6078   27.3295   -1.6481 H         1 UNK         0.0690 
     96 H96        27.8854   26.9976   -2.6264 H         1 UNK         0.0788 
     97 H97        28.4825   26.4281   -1.0679 H         1 UNK         0.0788 
     98 H98        27.9329   28.0868   -1.2523 H         1 UNK         0.0788 
     99 H99        26.8411   24.7159   -1.8601 H         1 UNK         0.2993 
    100 H100       23.9285   22.8198   -1.5884 H         1 UNK         0.0949 
    101 H101       24.2449   22.0645   -3.9334 H         1 UNK         0.0767 
    102 H102       23.4834   23.6451   -3.9107 H         1 UNK         0.0767 
    103 H103       25.1924   23.5076   -4.2999 H         1 UNK         0.0767 
    104 H104       26.4193   22.0669   -2.6705 H         1 UNK         0.3013 
    105 H105       27.4746   28.5452    2.1280 H         1 UNK         0.3121 
    106 H106       28.2794   31.1157    3.1650 H         1 UNK         0.0774 
    107 H107       26.5559   31.9943    1.6744 H         1 UNK         0.0815 
    108 H108       26.4828   30.4943    0.7672 H         1 UNK         0.0815 
    109 H109       25.9296   30.5433    2.4419 H         1 UNK         0.0815 
    110 H110       29.5227   29.1689    0.6648 H         1 UNK         0.2987 
    111 H111       30.2075   30.7300   -1.4466 H         1 UNK         0.0949 
    112 H112       31.8580   28.4889   -0.1552 H         1 UNK         0.0806 
    113 H113       30.5826   28.2903   -1.3567 H         1 UNK         0.0806 
    114 H114       32.0850   29.0822   -1.7945 H         1 UNK         0.0806 
    115 H115       31.9750   30.6822    1.6308 H         1 UNK         0.3010 
    116 H116       33.0519   33.3212    0.9880 H         1 UNK         0.0829 
    117 H117       34.9375   31.8451    0.2725 H         1 UNK         0.0813 
    118 H118       35.3648   32.7842    1.6922 H         1 UNK         0.0813 
    119 H119       34.9603   31.0839    1.8595 H         1 UNK         0.0813 
    120 H120       30.8855   32.6605    2.4620 H         1 UNK         0.3038 
    121 H121       29.8261   32.9118    4.4146 H         1 UNK         0.0769 
    122 H122       30.5112   34.9614    5.6629 H         1 UNK         0.0811 
    123 H123       30.5768   35.2217    3.9274 H         1 UNK         0.0811 
    124 H124       32.0638   34.9632    4.8381 H         1 UNK         0.0811 
    125 H125       30.6425   30.6321    4.8724 H         1 UNK         0.3204 
    126 H126       30.9213   29.1058    6.4001 H         1 UNK         0.0748 
    127 H127       31.5798   29.4125    8.7101 H         1 UNK         0.0771 
    128 H128       32.1486   31.0430    8.4156 H         1 UNK         0.0771 
    129 H129       30.4266   30.6719    8.2998 H         1 UNK         0.0771 
    130 H130       33.4103   31.0432    5.1081 H         1 UNK         0.2980 
    131 H131       35.3476   30.5961    4.2299 H         1 UNK         0.0545 
    132 H132       35.2178   30.7909    7.3300 H         1 UNK         0.3459 
    133 H133       36.8343   30.2949    7.7708 H         1 UNK         0.3459 
    134 H134       35.9753   28.3406    3.4989 H         1 UNK         0.0616 
    135 H135       34.8329   27.6092    4.5933 H         1 UNK         0.0616 
    136 H136       35.0474   26.6784    1.9685 H         1 UNK         0.0634 
    137 H137       33.9734   27.2492    0.7183 H         1 UNK         0.0634 
@<TRIPOS>BOND
     1    1    2 1    
     2    1   72 1    
     3    1   73 1    
     4    1   74 1    
     5    2    3 2    
     6    2    4 am   BACKBONE|DICT|INTERRES
     7    4    5 1    
     8    4   75 1    
     9    5    6 1    
    10    5   35 1    
    11    5   76 1    
    12    6    7 1    
    13    6   77 1    
    14    6   78 1    
    15    7    8 1    
    16    8    9 1    
    17    8   79 1    
    18    8   80 1    
    19    9   10 ar   
    20    9   14 ar   
    21   10   11 ar   
    22   10   81 1    
    23   11   12 ar   
    24   11   71 1    
    25   12   13 ar   
    26   12   82 1    
    27   13   14 ar   
    28   13   15 1    
    29   14   83 1    
    30   15   16 1    
    31   15   84 1    
    32   15   85 1    
    33   16   17 1    
    34   17   18 1    
    35   17   86 1    
    36   17   87 1    
    37   18   19 1    
    38   18   37 1    
    39   18   88 1    
    40   19   20 am   BACKBONE|DICT|INTERRES
    41   19   89 1    
    42   20   21 2    
    43   20   22 1    
    44   22   23 1    
    45   22   24 1    
    46   22   90 1    
    47   23   91 1    
    48   23   92 1    
    49   23   93 1    
    50   24   25 am   BACKBONE|DICT|INTERRES
    51   24   94 1    
    52   25   26 2    
    53   25   27 1    
    54   27   28 1    
    55   27   29 1    
    56   27   95 1    
    57   28   96 1    
    58   28   97 1    
    59   28   98 1    
    60   29   30 am   BACKBONE|DICT|INTERRES
    61   29   99 1    
    62   30   31 2    
    63   30   32 1    
    64   32   33 1    
    65   32   34 1    
    66   32  100 1    
    67   33  101 1    
    68   33  102 1    
    69   33  103 1    
    70   34   35 am   BACKBONE|DICT|INTERRES
    71   34  104 1    
    72   35   36 2    
    73   37   38 2    
    74   37   39 am   BACKBONE|DICT|INTERRES
    75   39   40 1    
    76   39  105 1    
    77   40   41 1    
    78   40   42 1    
    79   40  106 1    
    80   41  107 1    
    81   41  108 1    
    82   41  109 1    
    83   42   43 2    
    84   42   44 am   BACKBONE|DICT|INTERRES
    85   44   45 1    
    86   44  110 1    
    87   45   46 1    
    88   45   47 1    
    89   45  111 1    
    90   46  112 1    
    91   46  113 1    
    92   46  114 1    
    93   47   48 2    
    94   47   49 am   BACKBONE|DICT|INTERRES
    95   49   50 1    
    96   49  115 1    
    97   50   51 1    
    98   50   52 1    
    99   50  116 1    
   100   51  117 1    
   101   51  118 1    
   102   51  119 1    
   103   52   53 2    
   104   52   54 am   BACKBONE|DICT|INTERRES
   105   54   55 1    
   106   54  120 1    
   107   55   56 1    
   108   55   57 1    
   109   55  121 1    
   110   56  122 1    
   111   56  123 1    
   112   56  124 1    
   113   57   58 2    
   114   57   59 am   BACKBONE|DICT|INTERRES
   115   59   60 1    
   116   59  125 1    
   117   60   61 1    
   118   60   62 1    
   119   60  126 1    
   120   61  127 1    
   121   61  128 1    
   122   61  129 1    
   123   62   63 2    
   124   62   64 am   BACKBONE|DICT|INTERRES
   125   64   65 1    
   126   64  130 1    
   127   65   66 1    
   128   65   69 1    
   129   65  131 1    
   130   66   67 am   BACKBONE|DICT|INTERRES
   131   66   68 2    
   132   67  132 1    
   133   67  133 1    
   134   69   70 1    
   135   69  134 1    
   136   69  135 1    
   137   70   71 1    
   138   71  136 1    
   139   71  137 1    
@<TRIPOS>SUBSTRUCTURE
     1 UNK         1 GROUP             0       ****    0 ROOT    
