@<TRIPOS>MOLECULE
3R136
137   139    1
SMALL
USER_CHARGES


@<TRIPOS>ATOM
      1 CA         29.9056   16.6182    0.7838 C.3       0 UNK        -0.1979 
      2 C          30.6967   17.9077    0.9485 C.2       0 UNK         0.4864 
      3 O          31.8257   17.9991    0.4629 O.2       0 UNK        -0.5359 
      4 N          30.1175   18.8989    1.6371 N.am      1 UNK        -0.4318 
      5 CA         30.6906   20.2336    1.8327 C.3       1 UNK         0.0824 
      6 C6         30.0671   20.9511    3.0591 C.3       12 UNK        -0.0944 
      7 S7         28.2409   21.0667    3.0409 S.3       12 UNK        -0.2672 
      8 C8         27.9103   21.9113    4.6237 C.3       12 UNK         0.0333 
      9 C9         28.1038   23.4152    4.4984 C.ar      12 UNK        -0.0807 
     10 C10        29.3731   23.9737    4.6592 C.ar      12 UNK        -0.0894 
     11 C11        29.5814   25.3371    4.4464 C.ar      12 UNK        -0.0804 
     12 C12        28.4984   26.1571    4.1193 C.ar      12 UNK        -0.0824 
     13 C13        27.2102   25.6193    3.9972 C.ar      12 UNK        -0.0762 
     14 C14        27.0221   24.2453    4.1869 C.ar      12 UNK        -0.0782 
     15 C15        26.0343   26.4900    3.5670 C.3       12 UNK         0.0230 
     16 S16        25.9554   28.0672    4.4733 S.3       12 UNK        -0.2608 
     17 C17        25.5999   29.2551    3.1352 C.3       12 UNK        -0.0989 
     18 CA         26.8929   29.9514    2.6466 C.3       5 UNK         0.0716 
     19 N          27.7354   29.0782    1.8117 N.am      5 UNK        -0.4135 
     20 C          28.9931   29.3554    1.4405 C.2       4 UNK         0.5031 
     21 O          29.5683   30.3882    1.7894 O.2       4 UNK        -0.5229 
     22 CA         29.7297   28.3539    0.5239 C.3       4 UNK         0.0329 
     23 CB         31.2576   28.5088    0.6258 C.3       4 UNK        -0.2001 
     24 N          29.3880   26.9436    0.7419 N.am      4 UNK        -0.4303 
     25 C          28.2525   26.3424    0.3631 C.2       3 UNK         0.5044 
     26 O          27.2901   26.9589   -0.0975 O.2       3 UNK        -0.5152 
     27 CA         28.1650   24.8166    0.5663 C.3       3 UNK         0.0319 
     28 CB         27.0735   24.1566   -0.3016 C.3       3 UNK        -0.2001 
     29 N          29.4454   24.1161    0.4185 N.am      3 UNK        -0.4354 
     30 C          30.2039   24.0269   -0.6856 C.2       2 UNK         0.4964 
     31 O          29.9563   24.6094   -1.7417 O.2       2 UNK        -0.5047 
     32 CA         31.4516   23.1239   -0.6096 C.3       2 UNK         0.0288 
     33 CB         32.7329   23.9695   -0.5092 C.3       2 UNK        -0.2113 
     34 N          31.4211   22.1541    0.4932 N.am      2 UNK        -0.4145 
     35 C          30.6024   21.0917    0.5505 C.2       1 UNK         0.5006 
     36 O          29.7955   20.8045   -0.3389 O.2       1 UNK        -0.5103 
     37 C          26.5889   31.3052    1.9699 C.2       5 UNK         0.5055 
     38 O          26.4580   32.3089    2.6715 O.2       5 UNK        -0.5220 
     39 N          26.5676   31.3348    0.6285 N.am      6 UNK        -0.4450 
     40 CA         26.4910   32.5555   -0.1828 C.3       6 UNK         0.0367 
     41 CB         26.2918   32.1673   -1.6567 C.3       6 UNK        -0.1929 
     42 C          27.7173   33.4809   -0.0332 C.2       6 UNK         0.5070 
     43 O          27.6008   34.6768   -0.2995 O.2       6 UNK        -0.5237 
     44 N          28.8548   32.9246    0.4060 N.am      7 UNK        -0.4739 
     45 CA         30.0951   33.6367    0.7166 C.3       7 UNK         0.0276 
     46 CB         31.2586   32.9397   -0.0132 C.3       7 UNK        -0.1927 
     47 C          30.3316   33.7014    2.2386 C.2       7 UNK         0.5013 
     48 O          31.4813   33.8017    2.6655 O.2       7 UNK        -0.5193 
     49 N          29.2509   33.6253    3.0327 N.am      8 UNK        -0.4253 
     50 CA         29.2230   33.6539    4.5015 C.3       8 UNK         0.0242 
     51 CB         29.7072   35.0178    5.0404 C.3       8 UNK        -0.2000 
     52 C          29.9425   32.4552    5.1536 C.2       8 UNK         0.4948 
     53 O          30.5794   32.6129    6.1965 O.2       8 UNK        -0.5275 
     54 N          29.8054   31.2767    4.5287 N.am      9 UNK        -0.4246 
     55 CA         30.3441   29.9733    4.9346 C.3       9 UNK         0.0261 
     56 CB         29.8179   29.5381    6.3190 C.3       9 UNK        -0.1959 
     57 C          31.8737   29.8797    4.7980 C.2       9 UNK         0.5033 
     58 O          32.5122   29.1326    5.5421 O.2       9 UNK        -0.5390 
     59 N          32.4398   30.5931    3.8149 N.am      10 UNK        -0.4215 
     60 CA         33.8657   30.5880    3.4732 C.3       10 UNK         0.0240 
     61 CB         34.2065   31.8945    2.7332 C.3       10 UNK        -0.1982 
     62 C          34.2774   29.3311    2.6775 C.2       10 UNK         0.4970 
     63 O          34.8468   29.4478    1.5907 O.2       10 UNK        -0.4916 
     64 N          33.9676   28.1503    3.2243 N.am      11 UNK        -0.4279 
     65 CA         34.3631   26.8416    2.6887 C.3       11 UNK         0.1003 
     66 C          35.8945   26.6048    2.7988 C.2       11 UNK         0.5709 
     67 N          36.4798   25.8852    1.8510 N.am      11 UNK        -0.7358 
     68 O          36.5465   27.0303    3.7512 O.2       11 UNK        -0.4999 
     69 C69        33.5799   25.6917    3.3715 C.3       12 UNK        -0.0954 
     70 S70        31.8155   25.6796    2.9133 S.3       12 UNK        -0.2268 
     71 C71        30.9913   25.8954    4.5180 C.3       12 UNK         0.0203 
     72 H72        30.4566   15.7819    1.2132 H         1 UNK         0.0888 
     73 H73        28.9337   16.6712    1.2743 H         1 UNK         0.0888 
     74 H74        29.7408   16.4121   -0.2734 H         1 UNK         0.0888 
     75 H75        29.1753   18.7859    1.9839 H         1 UNK         0.3017 
     76 H76        31.7543   20.1006    2.0438 H         1 UNK         0.0873 
     77 H77        30.3566   20.4192    3.9669 H         1 UNK         0.0745 
     78 H78        30.4897   21.9503    3.1588 H         1 UNK         0.0745 
     79 H79        26.8863   21.6928    4.9302 H         1 UNK         0.0705 
     80 H80        28.5543   21.5058    5.4056 H         1 UNK         0.0705 
     81 H81        30.2126   23.3407    4.9107 H         1 UNK         0.1334 
     82 H82        28.6610   27.2098    3.9377 H         1 UNK         0.1417 
     83 H83        26.0394   23.8125    4.0559 H         1 UNK         0.1562 
     84 H84        25.0890   25.9659    3.7163 H         1 UNK         0.0748 
     85 H85        26.1161   26.6696    2.4958 H         1 UNK         0.0748 
     86 H86        24.9025   29.9849    3.5528 H         1 UNK         0.0940 
     87 H87        25.0676   28.7733    2.3132 H         1 UNK         0.0940 
     88 H88        27.4784   30.1993    3.5332 H         1 UNK         0.0703 
     89 H89        27.3054   28.2502    1.4141 H         1 UNK         0.3081 
     90 H90        29.4431   28.6076   -0.4986 H         1 UNK         0.0719 
     91 H91        31.6012   28.3647    1.6492 H         1 UNK         0.0809 
     92 H92        31.7792   27.7924   -0.0092 H         1 UNK         0.0809 
     93 H93        31.5777   29.5034    0.3144 H         1 UNK         0.0809 
     94 H94        30.1065   26.3704    1.1634 H         1 UNK         0.2990 
     95 H95        27.8762   24.6649    1.6021 H         1 UNK         0.0690 
     96 H96        27.0198   23.0830   -0.1191 H         1 UNK         0.0788 
     97 H97        27.2557   24.3082   -1.3659 H         1 UNK         0.0788 
     98 H98        26.0900   24.5713   -0.0772 H         1 UNK         0.0788 
     99 H99        29.7572   23.6134    1.2369 H         1 UNK         0.2993 
    100 H100       31.4909   22.5628   -1.5460 H         1 UNK         0.0949 
    101 H101       33.6249   23.3447   -0.5589 H         1 UNK         0.0767 
    102 H102       32.7947   24.6839   -1.3314 H         1 UNK         0.0767 
    103 H103       32.7739   24.5393    0.4180 H         1 UNK         0.0767 
    104 H104       32.0623   22.3213    1.2556 H         1 UNK         0.3013 
    105 H105       26.6764   30.4649    0.1273 H         1 UNK         0.3121 
    106 H106       25.6159   33.1207    0.1453 H         1 UNK         0.0774 
    107 H107       27.1316   31.5853   -2.0387 H         1 UNK         0.0815 
    108 H108       26.1993   33.0549   -2.2845 H         1 UNK         0.0815 
    109 H109       25.3835   31.5805   -1.7948 H         1 UNK         0.0815 
    110 H110       28.8595   31.9391    0.6436 H         1 UNK         0.2987 
    111 H111       30.0413   34.6681    0.3620 H         1 UNK         0.0949 
    112 H112       31.4161   31.9271    0.3586 H         1 UNK         0.0806 
    113 H113       31.0748   32.8790   -1.0858 H         1 UNK         0.0806 
    114 H114       32.1925   33.4867    0.1226 H         1 UNK         0.0806 
    115 H115       28.3481   33.5058    2.5882 H         1 UNK         0.3010 
    116 H116       28.1727   33.5513    4.7793 H         1 UNK         0.0829 
    117 H117       30.7720   35.1702    4.8617 H         1 UNK         0.0813 
    118 H118       29.1669   35.8428    4.5763 H         1 UNK         0.0813 
    119 H119       29.5464   35.0920    6.1166 H         1 UNK         0.0813 
    120 H120       29.3565   31.2784    3.6195 H         1 UNK         0.3038 
    121 H121       29.9520   29.2546    4.2162 H         1 UNK         0.0769 
    122 H122       30.0982   28.5074    6.5388 H         1 UNK         0.0811 
    123 H123       30.2197   30.1578    7.1207 H         1 UNK         0.0811 
    124 H124       28.7300   29.5907    6.3632 H         1 UNK         0.0811 
    125 H125       31.8403   31.1661    3.2364 H         1 UNK         0.3204 
    126 H126       34.4431   30.5771    4.4001 H         1 UNK         0.0748 
    127 H127       35.2706   31.9494    2.4997 H         1 UNK         0.0771 
    128 H128       33.6592   31.9805    1.7938 H         1 UNK         0.0771 
    129 H129       33.9660   32.7672    3.3408 H         1 UNK         0.0771 
    130 H130       33.5153   28.1552    4.1323 H         1 UNK         0.2980 
    131 H131       34.1098   26.8386    1.6263 H         1 UNK         0.0545 
    132 H132       35.9547   25.5219    1.0711 H         1 UNK         0.3459 
    133 H133       37.4702   25.7081    1.9131 H         1 UNK         0.3459 
    134 H134       33.9831   24.7224    3.0722 H         1 UNK         0.0616 
    135 H135       33.6930   25.7430    4.4557 H         1 UNK         0.0616 
    136 H136       31.5489   25.3799    5.3013 H         1 UNK         0.0634 
    137 H137       30.9793   26.9514    4.7837 H         1 UNK         0.0634 
@<TRIPOS>BOND
     1    1    2 1    
     2    1   72 1    
     3    1   73 1    
     4    1   74 1    
     5    2    3 2    
     6    2    4 am   BACKBONE|DICT|INTERRES
     7    4    5 1    
     8    4   75 1    
     9    5    6 1    
    10    5   35 1    
    11    5   76 1    
    12    6    7 1    
    13    6   77 1    
    14    6   78 1    
    15    7    8 1    
    16    8    9 1    
    17    8   79 1    
    18    8   80 1    
    19    9   10 ar   
    20    9   14 ar   
    21   10   11 ar   
    22   10   81 1    
    23   11   12 ar   
    24   11   71 1    
    25   12   13 ar   
    26   12   82 1    
    27   13   14 ar   
    28   13   15 1    
    29   14   83 1    
    30   15   16 1    
    31   15   84 1    
    32   15   85 1    
    33   16   17 1    
    34   17   18 1    
    35   17   86 1    
    36   17   87 1    
    37   18   19 1    
    38   18   37 1    
    39   18   88 1    
    40   19   20 am   BACKBONE|DICT|INTERRES
    41   19   89 1    
    42   20   21 2    
    43   20   22 1    
    44   22   23 1    
    45   22   24 1    
    46   22   90 1    
    47   23   91 1    
    48   23   92 1    
    49   23   93 1    
    50   24   25 am   BACKBONE|DICT|INTERRES
    51   24   94 1    
    52   25   26 2    
    53   25   27 1    
    54   27   28 1    
    55   27   29 1    
    56   27   95 1    
    57   28   96 1    
    58   28   97 1    
    59   28   98 1    
    60   29   30 am   BACKBONE|DICT|INTERRES
    61   29   99 1    
    62   30   31 2    
    63   30   32 1    
    64   32   33 1    
    65   32   34 1    
    66   32  100 1    
    67   33  101 1    
    68   33  102 1    
    69   33  103 1    
    70   34   35 am   BACKBONE|DICT|INTERRES
    71   34  104 1    
    72   35   36 2    
    73   37   38 2    
    74   37   39 am   BACKBONE|DICT|INTERRES
    75   39   40 1    
    76   39  105 1    
    77   40   41 1    
    78   40   42 1    
    79   40  106 1    
    80   41  107 1    
    81   41  108 1    
    82   41  109 1    
    83   42   43 2    
    84   42   44 am   BACKBONE|DICT|INTERRES
    85   44   45 1    
    86   44  110 1    
    87   45   46 1    
    88   45   47 1    
    89   45  111 1    
    90   46  112 1    
    91   46  113 1    
    92   46  114 1    
    93   47   48 2    
    94   47   49 am   BACKBONE|DICT|INTERRES
    95   49   50 1    
    96   49  115 1    
    97   50   51 1    
    98   50   52 1    
    99   50  116 1    
   100   51  117 1    
   101   51  118 1    
   102   51  119 1    
   103   52   53 2    
   104   52   54 am   BACKBONE|DICT|INTERRES
   105   54   55 1    
   106   54  120 1    
   107   55   56 1    
   108   55   57 1    
   109   55  121 1    
   110   56  122 1    
   111   56  123 1    
   112   56  124 1    
   113   57   58 2    
   114   57   59 am   BACKBONE|DICT|INTERRES
   115   59   60 1    
   116   59  125 1    
   117   60   61 1    
   118   60   62 1    
   119   60  126 1    
   120   61  127 1    
   121   61  128 1    
   122   61  129 1    
   123   62   63 2    
   124   62   64 am   BACKBONE|DICT|INTERRES
   125   64   65 1    
   126   64  130 1    
   127   65   66 1    
   128   65   69 1    
   129   65  131 1    
   130   66   67 am   BACKBONE|DICT|INTERRES
   131   66   68 2    
   132   67  132 1    
   133   67  133 1    
   134   69   70 1    
   135   69  134 1    
   136   69  135 1    
   137   70   71 1    
   138   71  136 1    
   139   71  137 1    
@<TRIPOS>SUBSTRUCTURE
     1 UNK         1 GROUP             0       ****    0 ROOT    
