@<TRIPOS>MOLECULE
3R136
137   139    1
SMALL
USER_CHARGES


@<TRIPOS>ATOM
      1 CA         34.4069   21.7725    0.5169 C.3       0 UNK        -0.1979 
      2 C          32.8996   21.8367    0.3208 C.2       0 UNK         0.4864 
      3 O          32.3364   20.9776   -0.3590 O.2       0 UNK        -0.5359 
      4 N          32.2516   22.8473    0.9146 N.am      1 UNK        -0.4318 
      5 CA         30.8253   23.1635    0.8344 C.3       1 UNK         0.0824 
      6 C6         29.9167   22.0434    1.4113 C.3       12 UNK        -0.0944 
      7 S7         28.1658   22.5413    1.5646 S.3       12 UNK        -0.2672 
      8 C8         27.8151   22.1888    3.3150 C.3       12 UNK         0.0333 
      9 C9         27.9450   23.4264    4.1913 C.ar      12 UNK        -0.0807 
     10 C10        29.1216   23.6853    4.9038 C.ar      12 UNK        -0.0894 
     11 C11        29.1928   24.7758    5.7792 C.ar      12 UNK        -0.0804 
     12 C12        28.0803   25.6103    5.9314 C.ar      12 UNK        -0.0824 
     13 C13        26.9140   25.3831    5.1951 C.ar      12 UNK        -0.0762 
     14 C14        26.8527   24.2878    4.3299 C.ar      12 UNK        -0.0782 
     15 C15        25.7096   26.3025    5.3431 C.3       12 UNK         0.0230 
     16 S16        25.5848   27.4837    3.9609 S.3       12 UNK        -0.2608 
     17 C17        26.9183   28.6668    4.3524 C.3       12 UNK        -0.0989 
     18 CA         28.2491   28.3267    3.6278 C.3       5 UNK         0.0716 
     19 N          28.0854   28.3277    2.1736 N.am      5 UNK        -0.4135 
     20 C          28.6154   27.4275    1.3416 C.2       4 UNK         0.5031 
     21 O          29.2890   26.4594    1.6985 O.2       4 UNK        -0.5229 
     22 CA         28.3586   27.6589   -0.1521 C.3       4 UNK         0.0329 
     23 CB         29.6364   28.1472   -0.8533 C.3       4 UNK        -0.2001 
     24 N          27.9078   26.4041   -0.7512 N.am      4 UNK        -0.4303 
     25 C          26.6178   26.0633   -0.8898 C.2       3 UNK         0.5044 
     26 O          25.6903   26.8353   -0.6398 O.2       3 UNK        -0.5152 
     27 CA         26.2723   24.6273   -1.3397 C.3       3 UNK         0.0319 
     28 CB         25.1902   24.6035   -2.4406 C.3       3 UNK        -0.2001 
     29 N          27.4261   23.7963   -1.7015 N.am      3 UNK        -0.4354 
     30 C          28.2396   23.9111   -2.7631 C.2       2 UNK         0.4964 
     31 O          28.0920   24.7394   -3.6627 O.2       2 UNK        -0.5047 
     32 CA         29.4439   22.9443   -2.7860 C.3       2 UNK         0.0288 
     33 CB         30.5554   23.3873   -3.7618 C.3       2 UNK        -0.2113 
     34 N          29.9943   22.7032   -1.4430 N.am      2 UNK        -0.4145 
     35 C          30.4595   23.6299   -0.5890 C.2       1 UNK         0.5006 
     36 O          30.5749   24.8215   -0.8750 O.2       1 UNK        -0.5103 
     37 C          29.3925   29.2763    4.0416 C.2       5 UNK         0.5055 
     38 O          30.0777   29.8491    3.1855 O.2       5 UNK        -0.5220 
     39 N          29.5835   29.4290    5.3605 N.am      6 UNK        -0.4450 
     40 CA         30.6130   30.2634    5.9852 C.3       6 UNK         0.0367 
     41 CB         30.5439   30.1203    7.5140 C.3       6 UNK        -0.1929 
     42 C          30.5321   31.7395    5.5697 C.2       6 UNK         0.5070 
     43 O          31.5376   32.3130    5.1510 O.2       6 UNK        -0.5237 
     44 N          29.3205   32.3049    5.6441 N.am      7 UNK        -0.4739 
     45 CA         29.0269   33.6870    5.2558 C.3       7 UNK         0.0276 
     46 CB         27.6478   34.0807    5.8099 C.3       7 UNK        -0.1927 
     47 C          29.0838   33.9278    3.7364 C.2       7 UNK         0.5013 
     48 O          29.2558   35.0747    3.3218 O.2       7 UNK        -0.5193 
     49 N          28.9252   32.8611    2.9399 N.am      8 UNK        -0.4253 
     50 CA         28.9854   32.9105    1.4811 C.3       8 UNK         0.0242 
     51 CB         28.1796   31.7499    0.8738 C.3       8 UNK        -0.2000 
     52 C          30.4366   32.8962    0.9848 C.2       8 UNK         0.4948 
     53 O          30.8244   33.8057    0.2499 O.2       8 UNK        -0.5275 
     54 N          31.2074   31.8719    1.3803 N.am      9 UNK        -0.4246 
     55 CA         32.5758   31.6584    0.9028 C.3       9 UNK         0.0261 
     56 CB         32.5657   31.1523   -0.5586 C.3       9 UNK        -0.1959 
     57 C          33.3732   30.7327    1.8340 C.2       9 UNK         0.5033 
     58 O          34.0669   29.8402    1.3430 O.2       9 UNK        -0.5390 
     59 N          33.2710   30.9398    3.1571 N.am      10 UNK        -0.4215 
     60 CA         34.0435   30.2476    4.2050 C.3       10 UNK         0.0240 
     61 CB         35.5239   30.6844    4.1480 C.3       10 UNK        -0.1982 
     62 C          33.8863   28.7093    4.2067 C.2       10 UNK         0.4970 
     63 O          34.8158   28.0061    4.6067 O.2       10 UNK        -0.4916 
     64 N          32.7272   28.2200    3.7423 N.am      11 UNK        -0.4279 
     65 CA         32.4283   26.8002    3.4823 C.3       11 UNK         0.1003 
     66 C          33.2845   26.1792    2.3341 C.2       11 UNK         0.5709 
     67 N          33.8708   26.9598    1.4338 N.am      11 UNK        -0.7358 
     68 O          33.4213   24.9619    2.2459 O.2       11 UNK        -0.4999 
     69 C69        32.4156   25.9071    4.7598 C.3       12 UNK        -0.0954 
     70 S70        31.3338   26.5323    6.0879 S.3       12 UNK        -0.2268 
     71 C71        30.4441   25.0303    6.6091 C.3       12 UNK         0.0203 
     72 H72        34.9133   21.8277   -0.4463 H         1 UNK         0.0888 
     73 H73        34.7707   22.5908    1.1388 H         1 UNK         0.0888 
     74 H74        34.6836   20.8336    0.9956 H         1 UNK         0.0888 
     75 H75        32.7946   23.5438    1.4265 H         1 UNK         0.3017 
     76 H76        30.6922   24.0368    1.4765 H         1 UNK         0.0873 
     77 H77        29.9640   21.1339    0.8114 H         1 UNK         0.0745 
     78 H78        30.2949   21.7610    2.3944 H         1 UNK         0.0745 
     79 H79        28.4536   21.3849    3.6836 H         1 UNK         0.0705 
     80 H80        26.7961   21.8052    3.3858 H         1 UNK         0.0705 
     81 H81        29.9692   23.0220    4.7987 H         1 UNK         0.1334 
     82 H82        28.1295   26.4428    6.6195 H         1 UNK         0.1417 
     83 H83        25.9459   24.0985    3.7712 H         1 UNK         0.1562 
     84 H84        25.7419   26.8406    6.2917 H         1 UNK         0.0748 
     85 H85        24.7995   25.7014    5.3706 H         1 UNK         0.0748 
     86 H86        27.0390   28.6898    5.4361 H         1 UNK         0.0940 
     87 H87        26.5751   29.6643    4.0706 H         1 UNK         0.0940 
     88 H88        28.5662   27.3326    3.9426 H         1 UNK         0.0703 
     89 H89        27.5450   29.0876    1.7910 H         1 UNK         0.3081 
     90 H90        27.5954   28.4301   -0.2782 H         1 UNK         0.0719 
     91 H91        30.4708   27.4607   -0.7055 H         1 UNK         0.0809 
     92 H92        29.4825   28.2627   -1.9262 H         1 UNK         0.0809 
     93 H93        29.9419   29.1173   -0.4608 H         1 UNK         0.0809 
     94 H94        28.6306   25.7120   -0.9140 H         1 UNK         0.2990 
     95 H95        25.8431   24.1478   -0.4586 H         1 UNK         0.0690 
     96 H96        24.9424   23.5831   -2.7330 H         1 UNK         0.0788 
     97 H97        25.5057   25.1431   -3.3338 H         1 UNK         0.0788 
     98 H98        24.2684   25.0711   -2.0925 H         1 UNK         0.0788 
     99 H99        27.6668   23.0940   -1.0142 H         1 UNK         0.2993 
    100 H100       29.0565   21.9873   -3.1390 H         1 UNK         0.0949 
    101 H101       30.9480   24.3729   -3.5094 H         1 UNK         0.0767 
    102 H102       31.3882   22.6840   -3.7584 H         1 UNK         0.0767 
    103 H103       30.1800   23.4395   -4.7845 H         1 UNK         0.0767 
    104 H104       29.9913   21.7419   -1.1285 H         1 UNK         0.3013 
    105 H105       29.0042   28.9015    5.9960 H         1 UNK         0.3121 
    106 H106       31.5767   29.8759    5.6645 H         1 UNK         0.0774 
    107 H107       31.3107   30.7280    7.9967 H         1 UNK         0.0815 
    108 H108       29.5792   30.4373    7.9119 H         1 UNK         0.0815 
    109 H109       30.7118   29.0889    7.8242 H         1 UNK         0.0815 
    110 H110       28.5507   31.7553    5.9975 H         1 UNK         0.2987 
    111 H111       29.7781   34.3352    5.7132 H         1 UNK         0.0949 
    112 H112       27.4100   35.1169    5.5647 H         1 UNK         0.0806 
    113 H113       26.8528   33.4582    5.3972 H         1 UNK         0.0806 
    114 H114       27.6158   33.9926    6.8961 H         1 UNK         0.0806 
    115 H115       28.8442   31.9517    3.3694 H         1 UNK         0.3010 
    116 H116       28.5236   33.8415    1.1438 H         1 UNK         0.0829 
    117 H117       27.1499   31.7488    1.2319 H         1 UNK         0.0813 
    118 H118       28.1443   31.8334   -0.2133 H         1 UNK         0.0813 
    119 H119       28.6231   30.7839    1.1056 H         1 UNK         0.0813 
    120 H120       30.8209   31.1610    1.9988 H         1 UNK         0.3038 
    121 H121       33.0985   32.6170    0.9238 H         1 UNK         0.0769 
    122 H122       33.5807   31.0501   -0.9447 H         1 UNK         0.0811 
    123 H123       32.0435   31.8381   -1.2252 H         1 UNK         0.0811 
    124 H124       32.0881   30.1760   -0.6400 H         1 UNK         0.0811 
    125 H125       32.6453   31.6642    3.4976 H         1 UNK         0.3204 
    126 H126       33.6536   30.5955    5.1610 H         1 UNK         0.0748 
    127 H127       36.0815   30.2999    5.0029 H         1 UNK         0.0771 
    128 H128       36.0183   30.3199    3.2467 H         1 UNK         0.0771 
    129 H129       35.6179   31.7702    4.1665 H         1 UNK         0.0771 
    130 H130       32.0225   28.8739    3.4262 H         1 UNK         0.2980 
    131 H131       31.4120   26.7974    3.0938 H         1 UNK         0.0545 
    132 H132       34.4154   26.5333    0.7028 H         1 UNK         0.3459 
    133 H133       33.8226   27.9737    1.4923 H         1 UNK         0.3459 
    134 H134       33.4224   25.7976    5.1648 H         1 UNK         0.0616 
    135 H135       32.0859   24.9000    4.4993 H         1 UNK         0.0616 
    136 H136       30.1526   25.1499    7.6535 H         1 UNK         0.0634 
    137 H137       31.1181   24.1727    6.5824 H         1 UNK         0.0634 
@<TRIPOS>BOND
     1    1    2 1    
     2    1   72 1    
     3    1   73 1    
     4    1   74 1    
     5    2    3 2    
     6    2    4 am   BACKBONE|DICT|INTERRES
     7    4    5 1    
     8    4   75 1    
     9    5    6 1    
    10    5   35 1    
    11    5   76 1    
    12    6    7 1    
    13    6   77 1    
    14    6   78 1    
    15    7    8 1    
    16    8    9 1    
    17    8   79 1    
    18    8   80 1    
    19    9   10 ar   
    20    9   14 ar   
    21   10   11 ar   
    22   10   81 1    
    23   11   12 ar   
    24   11   71 1    
    25   12   13 ar   
    26   12   82 1    
    27   13   14 ar   
    28   13   15 1    
    29   14   83 1    
    30   15   16 1    
    31   15   84 1    
    32   15   85 1    
    33   16   17 1    
    34   17   18 1    
    35   17   86 1    
    36   17   87 1    
    37   18   19 1    
    38   18   37 1    
    39   18   88 1    
    40   19   20 am   BACKBONE|DICT|INTERRES
    41   19   89 1    
    42   20   21 2    
    43   20   22 1    
    44   22   23 1    
    45   22   24 1    
    46   22   90 1    
    47   23   91 1    
    48   23   92 1    
    49   23   93 1    
    50   24   25 am   BACKBONE|DICT|INTERRES
    51   24   94 1    
    52   25   26 2    
    53   25   27 1    
    54   27   28 1    
    55   27   29 1    
    56   27   95 1    
    57   28   96 1    
    58   28   97 1    
    59   28   98 1    
    60   29   30 am   BACKBONE|DICT|INTERRES
    61   29   99 1    
    62   30   31 2    
    63   30   32 1    
    64   32   33 1    
    65   32   34 1    
    66   32  100 1    
    67   33  101 1    
    68   33  102 1    
    69   33  103 1    
    70   34   35 am   BACKBONE|DICT|INTERRES
    71   34  104 1    
    72   35   36 2    
    73   37   38 2    
    74   37   39 am   BACKBONE|DICT|INTERRES
    75   39   40 1    
    76   39  105 1    
    77   40   41 1    
    78   40   42 1    
    79   40  106 1    
    80   41  107 1    
    81   41  108 1    
    82   41  109 1    
    83   42   43 2    
    84   42   44 am   BACKBONE|DICT|INTERRES
    85   44   45 1    
    86   44  110 1    
    87   45   46 1    
    88   45   47 1    
    89   45  111 1    
    90   46  112 1    
    91   46  113 1    
    92   46  114 1    
    93   47   48 2    
    94   47   49 am   BACKBONE|DICT|INTERRES
    95   49   50 1    
    96   49  115 1    
    97   50   51 1    
    98   50   52 1    
    99   50  116 1    
   100   51  117 1    
   101   51  118 1    
   102   51  119 1    
   103   52   53 2    
   104   52   54 am   BACKBONE|DICT|INTERRES
   105   54   55 1    
   106   54  120 1    
   107   55   56 1    
   108   55   57 1    
   109   55  121 1    
   110   56  122 1    
   111   56  123 1    
   112   56  124 1    
   113   57   58 2    
   114   57   59 am   BACKBONE|DICT|INTERRES
   115   59   60 1    
   116   59  125 1    
   117   60   61 1    
   118   60   62 1    
   119   60  126 1    
   120   61  127 1    
   121   61  128 1    
   122   61  129 1    
   123   62   63 2    
   124   62   64 am   BACKBONE|DICT|INTERRES
   125   64   65 1    
   126   64  130 1    
   127   65   66 1    
   128   65   69 1    
   129   65  131 1    
   130   66   67 am   BACKBONE|DICT|INTERRES
   131   66   68 2    
   132   67  132 1    
   133   67  133 1    
   134   69   70 1    
   135   69  134 1    
   136   69  135 1    
   137   70   71 1    
   138   71  136 1    
   139   71  137 1    
@<TRIPOS>SUBSTRUCTURE
     1 UNK         1 GROUP             0       ****    0 ROOT    
