@<TRIPOS>MOLECULE
3R136
137   139    1
SMALL
USER_CHARGES


@<TRIPOS>ATOM
      1 CA         24.6751   20.9354   -0.8195 C.3       0 UNK        -0.1979 
      2 C          26.0030   21.1347   -1.5356 C.2       0 UNK         0.4864 
      3 O          26.0780   20.9429   -2.7507 O.2       0 UNK        -0.5359 
      4 N          27.0504   21.5091   -0.7906 N.am      1 UNK        -0.4318 
      5 CA         28.3802   21.8339   -1.3146 C.3       1 UNK         0.0824 
      6 C6         29.4635   21.7228   -0.2109 C.3       12 UNK        -0.0944 
      7 S7         29.2132   22.8387    1.2160 S.3       12 UNK        -0.2672 
      8 C8         29.8555   21.7916    2.5547 C.3       12 UNK         0.0333 
      9 C9         30.0174   22.5883    3.8372 C.ar      12 UNK        -0.0807 
     10 C10        31.1831   23.3266    4.0545 C.ar      12 UNK        -0.0894 
     11 C11        31.3452   24.0685    5.2272 C.ar      12 UNK        -0.0804 
     12 C12        30.3368   24.0561    6.1959 C.ar      12 UNK        -0.0824 
     13 C13        29.1549   23.3373    5.9779 C.ar      12 UNK        -0.0762 
     14 C14        29.0048   22.5974    4.8002 C.ar      12 UNK        -0.0782 
     15 C15        28.0169   23.4051    6.9870 C.3       12 UNK         0.0230 
     16 S16        27.2794   25.0725    7.0740 S.3       12 UNK        -0.2608 
     17 C17        26.6844   25.3452    5.3652 C.3       12 UNK        -0.0989 
     18 CA         27.7471   26.0435    4.4726 C.3       5 UNK         0.0716 
     19 N          27.5148   25.8577    3.0411 N.am      5 UNK        -0.4135 
     20 C          26.5404   26.4033    2.3009 C.2       4 UNK         0.5031 
     21 O          25.5978   27.0472    2.7642 O.2       4 UNK        -0.5229 
     22 CA         26.6529   26.1893    0.7759 C.3       4 UNK         0.0329 
     23 CB         25.8342   27.2085   -0.0402 C.3       4 UNK        -0.2001 
     24 N          28.0326   26.1353    0.2702 N.am      4 UNK        -0.4303 
     25 C          29.0268   27.0188    0.4704 C.2       3 UNK         0.5044 
     26 O          28.9214   28.0274    1.1679 O.2       3 UNK        -0.5152 
     27 CA         30.3918   26.7104   -0.1738 C.3       3 UNK         0.0319 
     28 CB         31.3823   26.2179    0.8951 C.3       3 UNK        -0.2001 
     29 N          30.3162   25.7215   -1.2529 N.am      3 UNK        -0.4354 
     30 C          29.8494   25.9747   -2.4851 C.2       2 UNK         0.4964 
     31 O          29.5189   27.0950   -2.8743 O.2       2 UNK        -0.5047 
     32 CA         29.7013   24.7744   -3.4416 C.3       2 UNK         0.0288 
     33 CB         30.9409   24.6493   -4.3424 C.3       2 UNK        -0.2113 
     34 N          29.4614   23.4915   -2.7671 N.am      2 UNK        -0.4145 
     35 C          28.3985   23.2195   -1.9951 C.2       1 UNK         0.5006 
     36 O          27.4996   24.0339   -1.7683 O.2       1 UNK        -0.5103 
     37 C          28.0168   27.5239    4.8199 C.2       5 UNK         0.5055 
     38 O          27.1912   28.1837    5.4551 O.2       5 UNK        -0.5220 
     39 N          29.1949   27.9968    4.3883 N.am      6 UNK        -0.4450 
     40 CA         29.7802   29.3134    4.6549 C.3       6 UNK         0.0367 
     41 CB         30.1118   29.4680    6.1556 C.3       6 UNK        -0.1929 
     42 C          28.9592   30.4898    4.0917 C.2       6 UNK         0.5070 
     43 O          28.7984   31.5089    4.7676 O.2       6 UNK        -0.5237 
     44 N          28.4593   30.3449    2.8575 N.am      7 UNK        -0.4739 
     45 CA         27.8273   31.4328    2.1117 C.3       7 UNK         0.0276 
     46 CB         26.9327   30.8479    1.0096 C.3       7 UNK        -0.1927 
     47 C          28.9057   32.3477    1.5105 C.2       7 UNK         0.5013 
     48 O          29.8490   31.8471    0.8945 O.2       7 UNK        -0.5193 
     49 N          28.7456   33.6654    1.6972 N.am      8 UNK        -0.4253 
     50 CA         29.6009   34.7740    1.2369 C.3       8 UNK         0.0242 
     51 CB         29.7070   34.8066   -0.3009 C.3       8 UNK        -0.2000 
     52 C          30.9979   34.8520    1.8873 C.2       8 UNK         0.4948 
     53 O          31.4636   35.9602    2.1570 O.2       8 UNK        -0.5275 
     54 N          31.6361   33.7068    2.1414 N.am      9 UNK        -0.4246 
     55 CA         32.9196   33.5649    2.8220 C.3       9 UNK         0.0261 
     56 CB         34.0516   33.5202    1.7808 C.3       9 UNK        -0.1959 
     57 C          32.8872   32.2793    3.6542 C.2       9 UNK         0.5033 
     58 O          32.1054   31.3757    3.3497 O.2       9 UNK        -0.5390 
     59 N          33.7529   32.1977    4.6723 N.am      10 UNK        -0.4215 
     60 CA         33.8543   31.0838    5.6239 C.3       10 UNK         0.0240 
     61 CB         34.5846   31.5762    6.8881 C.3       10 UNK        -0.1982 
     62 C          34.4960   29.8145    5.0226 C.2       10 UNK         0.4970 
     63 O          35.5104   29.3368    5.5339 O.2       10 UNK        -0.4916 
     64 N          33.8937   29.3043    3.9420 N.am      11 UNK        -0.4279 
     65 CA         34.2860   28.0970    3.1932 C.3       11 UNK         0.1003 
     66 C          35.6611   28.1976    2.4623 C.2       11 UNK         0.5709 
     67 N          36.2191   29.3861    2.2630 N.am      11 UNK        -0.7358 
     68 O          36.2181   27.1896    2.0334 O.2       11 UNK        -0.4999 
     69 C69        34.1364   26.7909    4.0278 C.3       12 UNK        -0.0954 
     70 S70        32.4301   26.5193    4.6103 S.3       12 UNK        -0.2268 
     71 C71        32.6016   24.9004    5.4228 C.3       12 UNK         0.0203 
     72 H72        24.3226   19.9138   -0.9588 H         1 UNK         0.0888 
     73 H73        24.7572   21.1227    0.2511 H         1 UNK         0.0888 
     74 H74        23.9254   21.6139   -1.2255 H         1 UNK         0.0888 
     75 H75        26.9259   21.6842    0.1960 H         1 UNK         0.3017 
     76 H76        28.6195   21.0988   -2.0866 H         1 UNK         0.0873 
     77 H77        29.4896   20.6925    0.1481 H         1 UNK         0.0745 
     78 H78        30.4581   21.9077   -0.6206 H         1 UNK         0.0745 
     79 H79        29.1836   20.9460    2.7100 H         1 UNK         0.0705 
     80 H80        30.8190   21.3726    2.2596 H         1 UNK         0.0705 
     81 H81        31.9593   23.3379    3.3013 H         1 UNK         0.1334 
     82 H82        30.4495   24.6415    7.0984 H         1 UNK         0.1417 
     83 H83        28.0926   22.0440    4.6221 H         1 UNK         0.1562 
     84 H84        28.3958   23.1336    7.9733 H         1 UNK         0.0748 
     85 H85        27.2365   22.6808    6.7484 H         1 UNK         0.0748 
     86 H86        25.7604   25.9255    5.3954 H         1 UNK         0.0940 
     87 H87        26.4122   24.3787    4.9385 H         1 UNK         0.0940 
     88 H88        28.6961   25.5402    4.6371 H         1 UNK         0.0703 
     89 H89        28.2241   25.3315    2.5509 H         1 UNK         0.3081 
     90 H90        26.2266   25.2031    0.5859 H         1 UNK         0.0719 
     91 H91        26.2140   28.2202    0.0883 H         1 UNK         0.0809 
     92 H92        24.7856   27.2087    0.2597 H         1 UNK         0.0809 
     93 H93        25.8648   26.9738   -1.1043 H         1 UNK         0.0809 
     94 H94        28.2168   25.3489   -0.3428 H         1 UNK         0.2990 
     95 H95        30.7746   27.6467   -0.5857 H         1 UNK         0.0690 
     96 H96        32.3783   26.0691    0.4777 H         1 UNK         0.0788 
     97 H97        31.0630   25.2784    1.3473 H         1 UNK         0.0788 
     98 H98        31.4766   26.9479    1.6995 H         1 UNK         0.0788 
     99 H99        30.5788   24.7745   -1.0215 H         1 UNK         0.2993 
    100 H100       28.8356   24.9771   -4.0762 H         1 UNK         0.0949 
    101 H101       30.8106   23.8683   -5.0920 H         1 UNK         0.0767 
    102 H102       31.1294   25.5808   -4.8786 H         1 UNK         0.0767 
    103 H103       31.8379   24.4178   -3.7664 H         1 UNK         0.0767 
    104 H104       30.1609   22.7756   -2.9041 H         1 UNK         0.3013 
    105 H105       29.7742   27.3817    3.8345 H         1 UNK         0.3121 
    106 H106       30.7256   29.3260    4.1128 H         1 UNK         0.0774 
    107 H107       30.6005   30.4217    6.3537 H         1 UNK         0.0815 
    108 H108       29.2148   29.4349    6.7742 H         1 UNK         0.0815 
    109 H109       30.7852   28.6809    6.4949 H         1 UNK         0.0815 
    110 H110       28.6605   29.4946    2.3342 H         1 UNK         0.2987 
    111 H111       27.1955   32.0096    2.7909 H         1 UNK         0.0949 
    112 H112       27.5109   30.2657    0.2907 H         1 UNK         0.0806 
    113 H113       26.1637   30.2002    1.4309 H         1 UNK         0.0806 
    114 H114       26.4256   31.6393    0.4563 H         1 UNK         0.0806 
    115 H115       27.9503   33.9576    2.2489 H         1 UNK         0.3010 
    116 H116       29.0768   35.6819    1.5404 H         1 UNK         0.0829 
    117 H117       28.7219   34.8304   -0.7668 H         1 UNK         0.0813 
    118 H118       30.2444   35.6957   -0.6337 H         1 UNK         0.0813 
    119 H119       30.2433   33.9418   -0.6928 H         1 UNK         0.0813 
    120 H120       31.1757   32.8296    1.9031 H         1 UNK         0.3038 
    121 H121       33.0734   34.4081    3.4990 H         1 UNK         0.0769 
    122 H122       34.0778   34.4339    1.1866 H         1 UNK         0.0811 
    123 H123       33.9333   32.6798    1.0954 H         1 UNK         0.0811 
    124 H124       35.0261   33.4187    2.2598 H         1 UNK         0.0811 
    125 H125       34.3885   32.9683    4.8238 H         1 UNK         0.3204 
    126 H126       32.8435   30.8044    5.9233 H         1 UNK         0.0748 
    127 H127       34.0675   32.4223    7.3415 H         1 UNK         0.0771 
    128 H128       34.6342   30.7903    7.6432 H         1 UNK         0.0771 
    129 H129       35.6079   31.8846    6.6699 H         1 UNK         0.0771 
    130 H130       33.0986   29.8214    3.5741 H         1 UNK         0.2980 
    131 H131       33.5671   28.0333    2.3764 H         1 UNK         0.0545 
    132 H132       37.1013   29.4414    1.7792 H         1 UNK         0.3459 
    133 H133       35.7741   30.2224    2.6030 H         1 UNK         0.3459 
    134 H134       34.4113   25.9231    3.4257 H         1 UNK         0.0616 
    135 H135       34.8098   26.7962    4.8861 H         1 UNK         0.0616 
    136 H136       32.8066   25.0508    6.4837 H         1 UNK         0.0634 
    137 H137       33.4590   24.3620    5.0163 H         1 UNK         0.0634 
@<TRIPOS>BOND
     1    1    2 1    
     2    1   72 1    
     3    1   73 1    
     4    1   74 1    
     5    2    3 2    
     6    2    4 am   BACKBONE|DICT|INTERRES
     7    4    5 1    
     8    4   75 1    
     9    5    6 1    
    10    5   35 1    
    11    5   76 1    
    12    6    7 1    
    13    6   77 1    
    14    6   78 1    
    15    7    8 1    
    16    8    9 1    
    17    8   79 1    
    18    8   80 1    
    19    9   10 ar   
    20    9   14 ar   
    21   10   11 ar   
    22   10   81 1    
    23   11   12 ar   
    24   11   71 1    
    25   12   13 ar   
    26   12   82 1    
    27   13   14 ar   
    28   13   15 1    
    29   14   83 1    
    30   15   16 1    
    31   15   84 1    
    32   15   85 1    
    33   16   17 1    
    34   17   18 1    
    35   17   86 1    
    36   17   87 1    
    37   18   19 1    
    38   18   37 1    
    39   18   88 1    
    40   19   20 am   BACKBONE|DICT|INTERRES
    41   19   89 1    
    42   20   21 2    
    43   20   22 1    
    44   22   23 1    
    45   22   24 1    
    46   22   90 1    
    47   23   91 1    
    48   23   92 1    
    49   23   93 1    
    50   24   25 am   BACKBONE|DICT|INTERRES
    51   24   94 1    
    52   25   26 2    
    53   25   27 1    
    54   27   28 1    
    55   27   29 1    
    56   27   95 1    
    57   28   96 1    
    58   28   97 1    
    59   28   98 1    
    60   29   30 am   BACKBONE|DICT|INTERRES
    61   29   99 1    
    62   30   31 2    
    63   30   32 1    
    64   32   33 1    
    65   32   34 1    
    66   32  100 1    
    67   33  101 1    
    68   33  102 1    
    69   33  103 1    
    70   34   35 am   BACKBONE|DICT|INTERRES
    71   34  104 1    
    72   35   36 2    
    73   37   38 2    
    74   37   39 am   BACKBONE|DICT|INTERRES
    75   39   40 1    
    76   39  105 1    
    77   40   41 1    
    78   40   42 1    
    79   40  106 1    
    80   41  107 1    
    81   41  108 1    
    82   41  109 1    
    83   42   43 2    
    84   42   44 am   BACKBONE|DICT|INTERRES
    85   44   45 1    
    86   44  110 1    
    87   45   46 1    
    88   45   47 1    
    89   45  111 1    
    90   46  112 1    
    91   46  113 1    
    92   46  114 1    
    93   47   48 2    
    94   47   49 am   BACKBONE|DICT|INTERRES
    95   49   50 1    
    96   49  115 1    
    97   50   51 1    
    98   50   52 1    
    99   50  116 1    
   100   51  117 1    
   101   51  118 1    
   102   51  119 1    
   103   52   53 2    
   104   52   54 am   BACKBONE|DICT|INTERRES
   105   54   55 1    
   106   54  120 1    
   107   55   56 1    
   108   55   57 1    
   109   55  121 1    
   110   56  122 1    
   111   56  123 1    
   112   56  124 1    
   113   57   58 2    
   114   57   59 am   BACKBONE|DICT|INTERRES
   115   59   60 1    
   116   59  125 1    
   117   60   61 1    
   118   60   62 1    
   119   60  126 1    
   120   61  127 1    
   121   61  128 1    
   122   61  129 1    
   123   62   63 2    
   124   62   64 am   BACKBONE|DICT|INTERRES
   125   64   65 1    
   126   64  130 1    
   127   65   66 1    
   128   65   69 1    
   129   65  131 1    
   130   66   67 am   BACKBONE|DICT|INTERRES
   131   66   68 2    
   132   67  132 1    
   133   67  133 1    
   134   69   70 1    
   135   69  134 1    
   136   69  135 1    
   137   70   71 1    
   138   71  136 1    
   139   71  137 1    
@<TRIPOS>SUBSTRUCTURE
     1 UNK         1 GROUP             0       ****    0 ROOT    
