@<TRIPOS>MOLECULE
3R136
137   139    1
SMALL
USER_CHARGES


@<TRIPOS>ATOM
      1 CA         27.5258   21.9552    2.3595 C.3       0 UNK        -0.1979 
      2 C          27.9314   22.3690    0.9532 C.2       0 UNK         0.4864 
      3 O          27.5017   21.7401   -0.0154 O.2       0 UNK        -0.5359 
      4 N          28.7408   23.4303    0.8278 N.am      1 UNK        -0.4318 
      5 CA         29.1807   24.0170   -0.4423 C.3       1 UNK         0.0824 
      6 C6         30.2949   25.0715   -0.2247 C.3       12 UNK        -0.0944 
      7 S7         31.9516   24.3200   -0.0665 S.3       12 UNK        -0.2672 
      8 C8         31.9885   23.6597    1.6353 C.3       12 UNK         0.0333 
      9 C9         31.6859   24.7127    2.6922 C.ar      12 UNK        -0.0807 
     10 C10        32.5073   25.8354    2.8236 C.ar      12 UNK        -0.0894 
     11 C11        32.2309   26.8104    3.7857 C.ar      12 UNK        -0.0804 
     12 C12        31.1155   26.6613    4.6155 C.ar      12 UNK        -0.0824 
     13 C13        30.2953   25.5334    4.5061 C.ar      12 UNK        -0.0762 
     14 C14        30.5958   24.5559    3.5534 C.ar      12 UNK        -0.0782 
     15 C15        29.0981   25.3589    5.4324 C.3       12 UNK         0.0230 
     16 S16        27.5086   25.3630    4.5378 S.3       12 UNK        -0.2608 
     17 C17        27.4830   27.0358    3.8099 C.3       12 UNK        -0.0989 
     18 CA         27.2990   26.9796    2.2684 C.3       5 UNK         0.0716 
     19 N          26.0070   26.4372    1.8198 N.am      5 UNK        -0.4135 
     20 C          24.7924   26.9398    2.0923 C.2       4 UNK         0.5031 
     21 O          24.5886   27.8512    2.8953 O.2       4 UNK        -0.5229 
     22 CA         23.5869   26.3813    1.3132 C.3       4 UNK         0.0329 
     23 CB         23.0401   27.4498    0.3505 C.3       4 UNK        -0.2001 
     24 N          23.8630   25.1707    0.5397 N.am      4 UNK        -0.4303 
     25 C          23.9598   23.9294    1.0267 C.2       3 UNK         0.5044 
     26 O          23.8948   23.6608    2.2259 O.2       3 UNK        -0.5152 
     27 CA         24.1660   22.7893    0.0097 C.3       3 UNK         0.0319 
     28 CB         22.8180   22.2884   -0.5440 C.3       3 UNK        -0.2001 
     29 N          25.1173   23.0954   -1.0703 N.am      3 UNK        -0.4354 
     30 C          25.0196   23.9951   -2.0642 C.2       2 UNK         0.4964 
     31 O          24.0263   24.7002   -2.2491 O.2       2 UNK        -0.5047 
     32 CA         26.2619   24.1729   -2.9646 C.3       2 UNK         0.0288 
     33 CB         26.2795   25.5353   -3.6901 C.3       2 UNK        -0.2113 
     34 N          27.5221   23.9488   -2.2422 N.am      2 UNK        -0.4145 
     35 C          27.9600   24.6171   -1.1639 C.2       1 UNK         0.5006 
     36 O          27.4080   25.6129   -0.6882 O.2       1 UNK        -0.5103 
     37 C          27.5529   28.3281    1.5648 C.2       5 UNK         0.5055 
     38 O          27.7252   29.3601    2.2151 O.2       5 UNK        -0.5220 
     39 N          27.5278   28.2826    0.2256 N.am      6 UNK        -0.4450 
     40 CA         27.6657   29.4355   -0.6669 C.3       6 UNK         0.0367 
     41 CB         27.1311   29.0484   -2.0550 C.3       6 UNK        -0.1929 
     42 C          29.1041   29.9731   -0.7783 C.2       6 UNK         0.5070 
     43 O          29.2878   31.0867   -1.2711 O.2       6 UNK        -0.5237 
     44 N          30.0966   29.1821   -0.3476 N.am      7 UNK        -0.4739 
     45 CA         31.5106   29.5546   -0.3123 C.3       7 UNK         0.0276 
     46 CB         32.3534   28.3046   -0.0132 C.3       7 UNK        -0.1927 
     47 C          31.7620   30.6600    0.7278 C.2       7 UNK         0.5013 
     48 O          31.5949   30.4193    1.9252 O.2       7 UNK        -0.5193 
     49 N          32.1427   31.8511    0.2515 N.am      8 UNK        -0.4253 
     50 CA         32.4155   33.0324    1.0689 C.3       8 UNK         0.0242 
     51 CB         32.2180   34.2926    0.2052 C.3       8 UNK        -0.2000 
     52 C          33.8237   32.9580    1.6825 C.2       8 UNK         0.4948 
     53 O          34.7555   33.5774    1.1645 O.2       8 UNK        -0.5275 
     54 N          33.9556   32.1860    2.7640 N.am      9 UNK        -0.4246 
     55 CA         35.1750   32.0267    3.5489 C.3       9 UNK         0.0261 
     56 CB         36.0059   30.8597    2.9866 C.3       9 UNK        -0.1959 
     57 C          34.7876   31.7817    5.0104 C.2       9 UNK         0.5033 
     58 O          33.6830   31.3005    5.2802 O.2       9 UNK        -0.5390 
     59 N          35.7077   32.0913    5.9318 N.am      10 UNK        -0.4215 
     60 CA         35.5469   31.9206    7.3796 C.3       10 UNK         0.0240 
     61 CB         36.4866   32.9028    8.1054 C.3       10 UNK        -0.1982 
     62 C          35.7654   30.4569    7.8129 C.2       10 UNK         0.4970 
     63 O          36.6619   30.1737    8.6103 O.2       10 UNK        -0.4916 
     64 N          34.9593   29.5516    7.2504 N.am      11 UNK        -0.4279 
     65 CA         34.9728   28.1088    7.5237 C.3       11 UNK         0.1003 
     66 C          34.5306   27.7687    8.9734 C.2       11 UNK         0.5709 
     67 N          35.0771   26.7099    9.5558 N.am      11 UNK        -0.7358 
     68 O          33.6719   28.4282    9.5574 O.2       11 UNK        -0.4999 
     69 C69        34.1166   27.3312    6.4926 C.3       12 UNK        -0.0954 
     70 S70        34.6931   27.5811    4.7788 S.3       12 UNK        -0.2268 
     71 C71        33.1453   28.0184    3.9262 C.3       12 UNK         0.0203 
     72 H72        26.4411   21.8769    2.4289 H         1 UNK         0.0888 
     73 H73        27.9541   20.9832    2.6026 H         1 UNK         0.0888 
     74 H74        27.8548   22.6717    3.1103 H         1 UNK         0.0888 
     75 H75        29.0354   23.9278    1.6535 H         1 UNK         0.3017 
     76 H76        29.5812   23.2140   -1.0653 H         1 UNK         0.0873 
     77 H77        30.0869   25.7111    0.6340 H         1 UNK         0.0745 
     78 H78        30.3563   25.7453   -1.0820 H         1 UNK         0.0745 
     79 H79        31.2986   22.8182    1.7068 H         1 UNK         0.0705 
     80 H80        32.9811   23.2495    1.8254 H         1 UNK         0.0705 
     81 H81        33.3650   25.9507    2.1747 H         1 UNK         0.1334 
     82 H82        30.8949   27.4178    5.3560 H         1 UNK         0.1417 
     83 H83        29.9786   23.6717    3.4927 H         1 UNK         0.1562 
     84 H84        29.0768   26.1393    6.1948 H         1 UNK         0.0748 
     85 H85        29.1978   24.4136    5.9674 H         1 UNK         0.0748 
     86 H86        28.4138   27.5477    4.0584 H         1 UNK         0.0940 
     87 H87        26.6970   27.6196    4.2894 H         1 UNK         0.0940 
     88 H88        28.0626   26.3027    1.8840 H         1 UNK         0.0703 
     89 H89        26.0674   25.7298    1.0997 H         1 UNK         0.3081 
     90 H90        22.8100   26.1496    2.0449 H         1 UNK         0.0719 
     91 H91        22.7728   28.3624    0.8852 H         1 UNK         0.0809 
     92 H92        23.7749   27.7200   -0.4094 H         1 UNK         0.0809 
     93 H93        22.1418   27.1021   -0.1601 H         1 UNK         0.0809 
     94 H94        23.9075   25.2688   -0.4719 H         1 UNK         0.2990 
     95 H95        24.6149   21.9620    0.5615 H         1 UNK         0.0690 
     96 H96        22.9559   21.4389   -1.2130 H         1 UNK         0.0788 
     97 H97        22.2848   23.0650   -1.0929 H         1 UNK         0.0788 
     98 H98        22.1647   21.9604    0.2657 H         1 UNK         0.0788 
     99 H99        26.0000   22.5981   -0.9823 H         1 UNK         0.2993 
    100 H100       26.1976   23.3928   -3.7247 H         1 UNK         0.0949 
    101 H101       26.2269   26.3657   -2.9867 H         1 UNK         0.0767 
    102 H102       27.1814   25.6572   -4.2897 H         1 UNK         0.0767 
    103 H103       25.4271   25.6296   -4.3640 H         1 UNK         0.0767 
    104 H104       28.0357   23.1243   -2.5236 H         1 UNK         0.3013 
    105 H105       27.3949   27.3747   -0.2185 H         1 UNK         0.3121 
    106 H106       27.0466   30.2454   -0.2750 H         1 UNK         0.0774 
    107 H107       27.7185   28.2445   -2.5004 H         1 UNK         0.0815 
    108 H108       26.0927   28.7206   -2.0039 H         1 UNK         0.0815 
    109 H109       27.1684   29.8970   -2.7395 H         1 UNK         0.0815 
    110 H110       29.8483   28.2996    0.0714 H         1 UNK         0.2987 
    111 H111       31.7929   29.9239   -1.3007 H         1 UNK         0.0949 
    112 H112       32.2668   27.5658   -0.8100 H         1 UNK         0.0806 
    113 H113       33.4105   28.5557    0.0832 H         1 UNK         0.0806 
    114 H114       32.0432   27.8296    0.9167 H         1 UNK         0.0806 
    115 H115       32.2590   31.9612   -0.7456 H         1 UNK         0.3010 
    116 H116       31.6929   33.0765    1.8872 H         1 UNK         0.0829 
    117 H117       32.8854   34.3047   -0.6576 H         1 UNK         0.0813 
    118 H118       32.4166   35.1959    0.7836 H         1 UNK         0.0813 
    119 H119       31.1942   34.3632   -0.1628 H         1 UNK         0.0813 
    120 H120       33.1456   31.6973    3.1328 H         1 UNK         0.3038 
    121 H121       35.7612   32.9473    3.5034 H         1 UNK         0.0769 
    122 H122       36.3271   31.0606    1.9644 H         1 UNK         0.0811 
    123 H123       35.4374   29.9298    2.9790 H         1 UNK         0.0811 
    124 H124       36.9043   30.6895    3.5809 H         1 UNK         0.0811 
    125 H125       36.6031   32.4417    5.6214 H         1 UNK         0.3204 
    126 H126       34.5225   32.1842    7.6526 H         1 UNK         0.0748 
    127 H127       37.5349   32.7040    7.8785 H         1 UNK         0.0771 
    128 H128       36.2728   33.9351    7.8272 H         1 UNK         0.0771 
    129 H129       36.3671   32.8309    9.1874 H         1 UNK         0.0771 
    130 H130       34.2663   29.8815    6.5872 H         1 UNK         0.2980 
    131 H131       36.0077   27.7786    7.4134 H         1 UNK         0.0545 
    132 H132       34.7925   26.4641   10.4911 H         1 UNK         0.3459 
    133 H133       35.7724   26.1545    9.0818 H         1 UNK         0.3459 
    134 H134       33.0699   27.6267    6.5779 H         1 UNK         0.0616 
    135 H135       34.1486   26.2591    6.6950 H         1 UNK         0.0616 
    136 H136       32.6461   28.8308    4.4566 H         1 UNK         0.0634 
    137 H137       33.3881   28.4076    2.9369 H         1 UNK         0.0634 
@<TRIPOS>BOND
     1    1    2 1    
     2    1   72 1    
     3    1   73 1    
     4    1   74 1    
     5    2    3 2    
     6    2    4 am   BACKBONE|DICT|INTERRES
     7    4    5 1    
     8    4   75 1    
     9    5    6 1    
    10    5   35 1    
    11    5   76 1    
    12    6    7 1    
    13    6   77 1    
    14    6   78 1    
    15    7    8 1    
    16    8    9 1    
    17    8   79 1    
    18    8   80 1    
    19    9   10 ar   
    20    9   14 ar   
    21   10   11 ar   
    22   10   81 1    
    23   11   12 ar   
    24   11   71 1    
    25   12   13 ar   
    26   12   82 1    
    27   13   14 ar   
    28   13   15 1    
    29   14   83 1    
    30   15   16 1    
    31   15   84 1    
    32   15   85 1    
    33   16   17 1    
    34   17   18 1    
    35   17   86 1    
    36   17   87 1    
    37   18   19 1    
    38   18   37 1    
    39   18   88 1    
    40   19   20 am   BACKBONE|DICT|INTERRES
    41   19   89 1    
    42   20   21 2    
    43   20   22 1    
    44   22   23 1    
    45   22   24 1    
    46   22   90 1    
    47   23   91 1    
    48   23   92 1    
    49   23   93 1    
    50   24   25 am   BACKBONE|DICT|INTERRES
    51   24   94 1    
    52   25   26 2    
    53   25   27 1    
    54   27   28 1    
    55   27   29 1    
    56   27   95 1    
    57   28   96 1    
    58   28   97 1    
    59   28   98 1    
    60   29   30 am   BACKBONE|DICT|INTERRES
    61   29   99 1    
    62   30   31 2    
    63   30   32 1    
    64   32   33 1    
    65   32   34 1    
    66   32  100 1    
    67   33  101 1    
    68   33  102 1    
    69   33  103 1    
    70   34   35 am   BACKBONE|DICT|INTERRES
    71   34  104 1    
    72   35   36 2    
    73   37   38 2    
    74   37   39 am   BACKBONE|DICT|INTERRES
    75   39   40 1    
    76   39  105 1    
    77   40   41 1    
    78   40   42 1    
    79   40  106 1    
    80   41  107 1    
    81   41  108 1    
    82   41  109 1    
    83   42   43 2    
    84   42   44 am   BACKBONE|DICT|INTERRES
    85   44   45 1    
    86   44  110 1    
    87   45   46 1    
    88   45   47 1    
    89   45  111 1    
    90   46  112 1    
    91   46  113 1    
    92   46  114 1    
    93   47   48 2    
    94   47   49 am   BACKBONE|DICT|INTERRES
    95   49   50 1    
    96   49  115 1    
    97   50   51 1    
    98   50   52 1    
    99   50  116 1    
   100   51  117 1    
   101   51  118 1    
   102   51  119 1    
   103   52   53 2    
   104   52   54 am   BACKBONE|DICT|INTERRES
   105   54   55 1    
   106   54  120 1    
   107   55   56 1    
   108   55   57 1    
   109   55  121 1    
   110   56  122 1    
   111   56  123 1    
   112   56  124 1    
   113   57   58 2    
   114   57   59 am   BACKBONE|DICT|INTERRES
   115   59   60 1    
   116   59  125 1    
   117   60   61 1    
   118   60   62 1    
   119   60  126 1    
   120   61  127 1    
   121   61  128 1    
   122   61  129 1    
   123   62   63 2    
   124   62   64 am   BACKBONE|DICT|INTERRES
   125   64   65 1    
   126   64  130 1    
   127   65   66 1    
   128   65   69 1    
   129   65  131 1    
   130   66   67 am   BACKBONE|DICT|INTERRES
   131   66   68 2    
   132   67  132 1    
   133   67  133 1    
   134   69   70 1    
   135   69  134 1    
   136   69  135 1    
   137   70   71 1    
   138   71  136 1    
   139   71  137 1    
@<TRIPOS>SUBSTRUCTURE
     1 UNK         1 GROUP             0       ****    0 ROOT    
