@<TRIPOS>MOLECULE
3R136
137   139    1
SMALL
USER_CHARGES


@<TRIPOS>ATOM
      1 CA         31.3731   19.2350   -2.7553 C.3       0 UNK        -0.1979 
      2 C          30.9904   20.6889   -2.9889 C.2       0 UNK         0.4864 
      3 O          30.4788   21.0229   -4.0582 O.2       0 UNK        -0.5359 
      4 N          31.2272   21.5546   -1.9942 N.am      1 UNK        -0.4318 
      5 CA         30.9359   22.9948   -2.0374 C.3       1 UNK         0.0824 
      6 C6         31.9179   23.7952   -1.1457 C.3       12 UNK        -0.0944 
      7 S7         31.8667   23.3440    0.6239 S.3       12 UNK        -0.2672 
      8 C8         31.3812   24.9421    1.3366 C.3       12 UNK         0.0333 
      9 C9         31.2660   24.8710    2.8503 C.ar      12 UNK        -0.0807 
     10 C10        32.3965   25.0380    3.6567 C.ar      12 UNK        -0.0894 
     11 C11        32.2860   24.9916    5.0500 C.ar      12 UNK        -0.0804 
     12 C12        31.0314   24.7827    5.6320 C.ar      12 UNK        -0.0824 
     13 C13        29.8936   24.6059    4.8383 C.ar      12 UNK        -0.0762 
     14 C14        30.0218   24.6461    3.4449 C.ar      12 UNK        -0.0782 
     15 C15        28.5559   24.3002    5.5073 C.3       12 UNK         0.0230 
     16 S16        27.1073   25.0250    4.6701 S.3       12 UNK        -0.2608 
     17 C17        27.2058   26.7857    5.1472 C.3       12 UNK        -0.0989 
     18 CA         27.3876   27.7520    3.9431 C.3       5 UNK         0.0716 
     19 N          26.4002   27.4957    2.8911 N.am      5 UNK        -0.4135 
     20 C          26.5101   27.8131    1.5963 C.2       4 UNK         0.5031 
     21 O          27.4524   28.4534    1.1293 O.2       4 UNK        -0.5229 
     22 CA         25.3889   27.2999    0.6690 C.3       4 UNK         0.0329 
     23 CB         25.5698   27.7592   -0.7900 C.3       4 UNK        -0.2001 
     24 N          25.2999   25.8371    0.6933 N.am      4 UNK        -0.4303 
     25 C          24.7576   25.1066    1.6768 C.2       3 UNK         0.5044 
     26 O          24.2073   25.6122    2.6571 O.2       3 UNK        -0.5152 
     27 CA         24.8347   23.5705    1.5709 C.3       3 UNK         0.0319 
     28 CB         23.4350   22.9428    1.6949 C.3       3 UNK        -0.2001 
     29 N          25.4613   23.0754    0.3403 N.am      3 UNK        -0.4354 
     30 C          26.7780   23.0198    0.0971 C.2       2 UNK         0.4964 
     31 O          27.6348   23.4297    0.8815 O.2       2 UNK        -0.5047 
     32 CA         27.1749   22.3588   -1.2373 C.3       2 UNK         0.0288 
     33 CB         26.4260   22.9684   -2.4455 C.3       2 UNK        -0.2113 
     34 N          28.6241   22.3254   -1.4755 N.am      2 UNK        -0.4145 
     35 C          29.4498   23.3436   -1.7693 C.2       1 UNK         0.5006 
     36 O          29.0873   24.5179   -1.8674 O.2       1 UNK        -0.5103 
     37 C          27.3532   29.2343    4.3831 C.2       5 UNK         0.5055 
     38 O          26.9753   29.5279    5.5203 O.2       5 UNK        -0.5220 
     39 N          27.6961   30.1501    3.4713 N.am      6 UNK        -0.4450 
     40 CA         27.7143   31.5935    3.6916 C.3       6 UNK         0.0367 
     41 CB         26.3757   32.1994    3.2358 C.3       6 UNK        -0.1929 
     42 C          28.8871   32.2130    2.9255 C.2       6 UNK         0.5070 
     43 O          29.2483   31.7104    1.8598 O.2       6 UNK        -0.5237 
     44 N          29.4290   33.3076    3.4804 N.am      7 UNK        -0.4739 
     45 CA         30.6311   34.0440    3.0570 C.3       7 UNK         0.0276 
     46 CB         30.5108   34.5376    1.5991 C.3       7 UNK        -0.1927 
     47 C          31.9288   33.2445    3.2796 C.2       7 UNK         0.5013 
     48 O          31.8890   32.0394    3.5377 O.2       7 UNK        -0.5193 
     49 N          33.0763   33.9301    3.1773 N.am      8 UNK        -0.4253 
     50 CA         34.4157   33.3724    3.4207 C.3       8 UNK         0.0242 
     51 CB         35.4652   34.4856    3.2704 C.3       8 UNK        -0.2000 
     52 C          34.7805   32.1671    2.5329 C.2       8 UNK         0.4948 
     53 O          35.5629   31.3175    2.9593 O.2       8 UNK        -0.5275 
     54 N          34.1794   32.0960    1.3375 N.am      9 UNK        -0.4246 
     55 CA         34.2934   30.9803    0.3978 C.3       9 UNK         0.0261 
     56 CB         33.7024   31.4091   -0.9556 C.3       9 UNK        -0.1959 
     57 C          33.6295   29.6753    0.8813 C.2       9 UNK         0.5033 
     58 O          33.9745   28.6152    0.3566 O.2       9 UNK        -0.5390 
     59 N          32.7007   29.7552    1.8452 N.am      10 UNK        -0.4215 
     60 CA         31.9715   28.6090    2.3877 C.3       10 UNK         0.0240 
     61 CB         30.6685   28.3947    1.5988 C.3       10 UNK        -0.1982 
     62 C          31.7631   28.7461    3.9032 C.2       10 UNK         0.4970 
     63 O          30.6959   28.4051    4.4130 O.2       10 UNK        -0.4916 
     64 N          32.8091   29.2176    4.5945 N.am      11 UNK        -0.4279 
     65 CA         32.9367   29.2392    6.0620 C.3       11 UNK         0.1003 
     66 C          31.9259   30.1614    6.8109 C.2       11 UNK         0.5709 
     67 N          31.3141   31.1417    6.1598 N.am      11 UNK        -0.7358 
     68 O          31.7168   30.0139    8.0133 O.2       11 UNK        -0.4999 
     69 C69        33.0090   27.8075    6.6727 C.3       12 UNK        -0.0954 
     70 S70        34.2855   26.7681    5.8795 S.3       12 UNK        -0.2268 
     71 C71        33.5250   25.1142    5.9297 C.3       12 UNK         0.0203 
     72 H72        32.1014   18.9151   -3.5000 H         1 UNK         0.0888 
     73 H73        31.8086   19.0812   -1.7680 H         1 UNK         0.0888 
     74 H74        30.4943   18.5964   -2.8417 H         1 UNK         0.0888 
     75 H75        31.6475   21.2292   -1.1340 H         1 UNK         0.3017 
     76 H76        31.1183   23.3289   -3.0614 H         1 UNK         0.0873 
     77 H77        31.7475   24.8668   -1.2662 H         1 UNK         0.0745 
     78 H78        32.9382   23.6299   -1.4956 H         1 UNK         0.0745 
     79 H79        30.4308   25.2544    0.8993 H         1 UNK         0.0705 
     80 H80        32.1161   25.6977    1.0555 H         1 UNK         0.0705 
     81 H81        33.3641   25.1980    3.2007 H         1 UNK         0.1334 
     82 H82        30.9447   24.7330    6.7089 H         1 UNK         0.1417 
     83 H83        29.1539   24.4942    2.8171 H         1 UNK         0.1562 
     84 H84        28.5592   24.6262    6.5487 H         1 UNK         0.0748 
     85 H85        28.4300   23.2170    5.5271 H         1 UNK         0.0748 
     86 H86        28.0235   26.9247    5.8574 H         1 UNK         0.0940 
     87 H87        26.2891   27.0186    5.6926 H         1 UNK         0.0940 
     88 H88        28.3756   27.5607    3.5233 H         1 UNK         0.0703 
     89 H89        25.5979   26.9364    3.1635 H         1 UNK         0.3081 
     90 H90        24.4483   27.7174    1.0349 H         1 UNK         0.0719 
     91 H91        26.4923   27.3705   -1.2241 H         1 UNK         0.0809 
     92 H92        24.7396   27.4315   -1.4158 H         1 UNK         0.0809 
     93 H93        25.6124   28.8474   -0.8542 H         1 UNK         0.0809 
     94 H94        25.7701   25.3448   -0.0517 H         1 UNK         0.2990 
     95 H95        25.4324   23.2298    2.4193 H         1 UNK         0.0690 
     96 H96        23.4855   21.8538    1.6852 H         1 UNK         0.0788 
     97 H97        22.7783   23.2574    0.8829 H         1 UNK         0.0788 
     98 H98        22.9558   23.2312    2.6317 H         1 UNK         0.0788 
     99 H99        24.8298   22.7218   -0.3644 H         1 UNK         0.2993 
    100 H100       26.8729   21.3133   -1.1558 H         1 UNK         0.0949 
    101 H101       26.5628   24.0486   -2.5079 H         1 UNK         0.0767 
    102 H102       26.7730   22.5351   -3.3838 H         1 UNK         0.0767 
    103 H103       25.3535   22.7804   -2.3901 H         1 UNK         0.0767 
    104 H104       29.0510   21.4146   -1.3890 H         1 UNK         0.3013 
    105 H105       27.9948   29.8417    2.5490 H         1 UNK         0.3121 
    106 H106       27.8589   31.7986    4.7548 H         1 UNK         0.0774 
    107 H107       26.3639   33.2801    3.3823 H         1 UNK         0.0815 
    108 H108       26.1902   32.0101    2.1776 H         1 UNK         0.0815 
    109 H109       25.5407   31.7862    3.8017 H         1 UNK         0.0815 
    110 H110       29.0346   33.6222    4.3563 H         1 UNK         0.2987 
    111 H111       30.6855   34.9198    3.7058 H         1 UNK         0.0949 
    112 H112       30.5798   33.7193    0.8816 H         1 UNK         0.0806 
    113 H113       29.5631   35.0493    1.4312 H         1 UNK         0.0806 
    114 H114       31.3035   35.2452    1.3545 H         1 UNK         0.0806 
    115 H115       33.0338   34.9164    2.9631 H         1 UNK         0.3010 
    116 H116       34.4356   33.0218    4.4549 H         1 UNK         0.0829 
    117 H117       35.2856   35.2997    3.9728 H         1 UNK         0.0813 
    118 H118       36.4686   34.1059    3.4695 H         1 UNK         0.0813 
    119 H119       35.4695   34.9038    2.2630 H         1 UNK         0.0813 
    120 H120       33.5534   32.8444    1.0786 H         1 UNK         0.3038 
    121 H121       35.3557   30.7695    0.2566 H         1 UNK         0.0769 
    122 H122       33.8013   30.6126   -1.6947 H         1 UNK         0.0811 
    123 H123       34.2156   32.2838   -1.3555 H         1 UNK         0.0811 
    124 H124       32.6408   31.6473   -0.8749 H         1 UNK         0.0811 
    125 H125       32.4693   30.6568    2.2574 H         1 UNK         0.3204 
    126 H126       32.5816   27.7116    2.2732 H         1 UNK         0.0748 
    127 H127       30.0077   29.2551    1.6835 H         1 UNK         0.0771 
    128 H128       30.8654   28.2272    0.5401 H         1 UNK         0.0771 
    129 H129       30.1219   27.5263    1.9649 H         1 UNK         0.0771 
    130 H130       33.6312   29.5045    4.0837 H         1 UNK         0.2980 
    131 H131       33.9040   29.7068    6.2473 H         1 UNK         0.0545 
    132 H132       30.6735   31.7351    6.6594 H         1 UNK         0.3459 
    133 H133       31.5015   31.3047    5.1734 H         1 UNK         0.3459 
    134 H134       33.2435   27.8548    7.7373 H         1 UNK         0.0616 
    135 H135       32.0363   27.3202    6.5972 H         1 UNK         0.0616 
    136 H136       33.2939   24.8652    6.9665 H         1 UNK         0.0634 
    137 H137       34.2640   24.3829    5.5997 H         1 UNK         0.0634 
@<TRIPOS>BOND
     1    1    2 1    
     2    1   72 1    
     3    1   73 1    
     4    1   74 1    
     5    2    3 2    
     6    2    4 am   BACKBONE|DICT|INTERRES
     7    4    5 1    
     8    4   75 1    
     9    5    6 1    
    10    5   35 1    
    11    5   76 1    
    12    6    7 1    
    13    6   77 1    
    14    6   78 1    
    15    7    8 1    
    16    8    9 1    
    17    8   79 1    
    18    8   80 1    
    19    9   10 ar   
    20    9   14 ar   
    21   10   11 ar   
    22   10   81 1    
    23   11   12 ar   
    24   11   71 1    
    25   12   13 ar   
    26   12   82 1    
    27   13   14 ar   
    28   13   15 1    
    29   14   83 1    
    30   15   16 1    
    31   15   84 1    
    32   15   85 1    
    33   16   17 1    
    34   17   18 1    
    35   17   86 1    
    36   17   87 1    
    37   18   19 1    
    38   18   37 1    
    39   18   88 1    
    40   19   20 am   BACKBONE|DICT|INTERRES
    41   19   89 1    
    42   20   21 2    
    43   20   22 1    
    44   22   23 1    
    45   22   24 1    
    46   22   90 1    
    47   23   91 1    
    48   23   92 1    
    49   23   93 1    
    50   24   25 am   BACKBONE|DICT|INTERRES
    51   24   94 1    
    52   25   26 2    
    53   25   27 1    
    54   27   28 1    
    55   27   29 1    
    56   27   95 1    
    57   28   96 1    
    58   28   97 1    
    59   28   98 1    
    60   29   30 am   BACKBONE|DICT|INTERRES
    61   29   99 1    
    62   30   31 2    
    63   30   32 1    
    64   32   33 1    
    65   32   34 1    
    66   32  100 1    
    67   33  101 1    
    68   33  102 1    
    69   33  103 1    
    70   34   35 am   BACKBONE|DICT|INTERRES
    71   34  104 1    
    72   35   36 2    
    73   37   38 2    
    74   37   39 am   BACKBONE|DICT|INTERRES
    75   39   40 1    
    76   39  105 1    
    77   40   41 1    
    78   40   42 1    
    79   40  106 1    
    80   41  107 1    
    81   41  108 1    
    82   41  109 1    
    83   42   43 2    
    84   42   44 am   BACKBONE|DICT|INTERRES
    85   44   45 1    
    86   44  110 1    
    87   45   46 1    
    88   45   47 1    
    89   45  111 1    
    90   46  112 1    
    91   46  113 1    
    92   46  114 1    
    93   47   48 2    
    94   47   49 am   BACKBONE|DICT|INTERRES
    95   49   50 1    
    96   49  115 1    
    97   50   51 1    
    98   50   52 1    
    99   50  116 1    
   100   51  117 1    
   101   51  118 1    
   102   51  119 1    
   103   52   53 2    
   104   52   54 am   BACKBONE|DICT|INTERRES
   105   54   55 1    
   106   54  120 1    
   107   55   56 1    
   108   55   57 1    
   109   55  121 1    
   110   56  122 1    
   111   56  123 1    
   112   56  124 1    
   113   57   58 2    
   114   57   59 am   BACKBONE|DICT|INTERRES
   115   59   60 1    
   116   59  125 1    
   117   60   61 1    
   118   60   62 1    
   119   60  126 1    
   120   61  127 1    
   121   61  128 1    
   122   61  129 1    
   123   62   63 2    
   124   62   64 am   BACKBONE|DICT|INTERRES
   125   64   65 1    
   126   64  130 1    
   127   65   66 1    
   128   65   69 1    
   129   65  131 1    
   130   66   67 am   BACKBONE|DICT|INTERRES
   131   66   68 2    
   132   67  132 1    
   133   67  133 1    
   134   69   70 1    
   135   69  134 1    
   136   69  135 1    
   137   70   71 1    
   138   71  136 1    
   139   71  137 1    
@<TRIPOS>SUBSTRUCTURE
     1 UNK         1 GROUP             0       ****    0 ROOT    
