@<TRIPOS>MOLECULE
3R136
137   139    1
SMALL
USER_CHARGES


@<TRIPOS>ATOM
      1 CA         30.8288   20.5782    2.6627 C.3       0 UNK        -0.1979 
      2 C          29.5007   21.2711    2.9303 C.2       0 UNK         0.4864 
      3 O          28.5335   20.6117    3.3128 O.2       0 UNK        -0.5359 
      4 N          29.4565   22.5945    2.7224 N.am      1 UNK        -0.4318 
      5 CA         28.3192   23.4931    2.9803 C.3       1 UNK         0.0824 
      6 C6         27.9442   23.6176    4.4851 C.3       12 UNK        -0.0944 
      7 S7         29.3396   23.8954    5.6357 S.3       12 UNK        -0.2672 
      8 C8         30.1583   25.3947    4.9947 C.3       12 UNK         0.0333 
      9 C9         31.1835   25.0826    3.9096 C.ar      12 UNK        -0.0807 
     10 C10        32.2551   24.2298    4.1887 C.ar      12 UNK        -0.0894 
     11 C11        33.1740   23.8909    3.1933 C.ar      12 UNK        -0.0804 
     12 C12        33.0146   24.4162    1.9084 C.ar      12 UNK        -0.0824 
     13 C13        31.9641   25.2913    1.6119 C.ar      12 UNK        -0.0762 
     14 C14        31.0594   25.6321    2.6282 C.ar      12 UNK        -0.0782 
     15 C15        31.8609   25.8206    0.1789 C.3       12 UNK         0.0230 
     16 S16        30.3312   26.7290   -0.2373 S.3       12 UNK        -0.2608 
     17 C17        30.8912   28.4691   -0.1457 C.3       12 UNK        -0.0989 
     18 CA         29.7751   29.4752    0.2364 C.3       5 UNK         0.0716 
     19 N          28.5767   29.3183   -0.5955 N.am      5 UNK        -0.4135 
     20 C          27.4425   30.0257   -0.4898 C.2       4 UNK         0.5031 
     21 O          27.3219   31.0107    0.2385 O.2       4 UNK        -0.5229 
     22 CA         26.2110   29.5280   -1.2703 C.3       4 UNK         0.0329 
     23 CB         25.9066   30.4747   -2.4427 C.3       4 UNK        -0.2001 
     24 N          26.2823   28.1492   -1.7747 N.am      4 UNK        -0.4303 
     25 C          26.4911   27.0351   -1.0570 C.2       3 UNK         0.5044 
     26 O          26.7344   27.0239    0.1541 O.2       3 UNK        -0.5152 
     27 CA         26.4497   25.7227   -1.8515 C.3       3 UNK         0.0319 
     28 CB         27.5642   25.6603   -2.9146 C.3       3 UNK        -0.2001 
     29 N          26.5869   24.5829   -0.9489 N.am      3 UNK        -0.4354 
     30 C          25.9999   23.3910   -1.1135 C.2       2 UNK         0.4964 
     31 O          25.2353   23.1384   -2.0463 O.2       2 UNK        -0.5047 
     32 CA         26.3265   22.2761   -0.1001 C.3       2 UNK         0.0288 
     33 CB         26.8116   21.0047   -0.8207 C.3       2 UNK        -0.2113 
     34 N          27.3428   22.6605    0.8830 N.am      2 UNK        -0.4145 
     35 C          27.0936   23.2060    2.0813 C.2       1 UNK         0.5006 
     36 O          25.9604   23.4945    2.4703 O.2       1 UNK        -0.5103 
     37 C          29.4726   29.4255    1.7483 C.2       5 UNK         0.5055 
     38 O          30.1021   30.1623    2.5079 O.2       5 UNK        -0.5220 
     39 N          28.4801   28.6160    2.1504 N.am      6 UNK        -0.4450 
     40 CA         27.9881   28.5017    3.5257 C.3       6 UNK         0.0367 
     41 CB         26.9541   27.3668    3.5875 C.3       6 UNK        -0.1929 
     42 C          27.3874   29.7986    4.1005 C.2       6 UNK         0.5070 
     43 O          27.3693   29.9560    5.3208 O.2       6 UNK        -0.5237 
     44 N          26.9223   30.7043    3.2297 N.am      7 UNK        -0.4739 
     45 CA         26.4182   32.0303    3.5952 C.3       7 UNK         0.0276 
     46 CB         25.2251   32.3701    2.6842 C.3       7 UNK        -0.1927 
     47 C          27.5073   33.1175    3.5031 C.2       7 UNK         0.5013 
     48 O          27.2020   34.2853    3.7510 O.2       7 UNK        -0.5193 
     49 N          28.7375   32.7365    3.1350 N.am      8 UNK        -0.4253 
     50 CA         29.8787   33.6213    2.9296 C.3       8 UNK         0.0242 
     51 CB         30.1536   33.7352    1.4147 C.3       8 UNK        -0.2000 
     52 C          31.0673   33.1091    3.7601 C.2       8 UNK         0.4948 
     53 O          30.9409   32.9872    4.9793 O.2       8 UNK        -0.5275 
     54 N          32.2039   32.8429    3.1037 N.am      9 UNK        -0.4246 
     55 CA         33.4811   32.4752    3.7219 C.3       9 UNK         0.0261 
     56 CB         34.6084   32.7660    2.7158 C.3       9 UNK        -0.1959 
     57 C          33.5755   31.0216    4.2259 C.2       9 UNK         0.5033 
     58 O          34.6018   30.6739    4.8158 O.2       9 UNK        -0.5390 
     59 N          32.5525   30.1898    3.9734 N.am      10 UNK        -0.4215 
     60 CA         32.5099   28.7514    4.2563 C.3       10 UNK         0.0240 
     61 CB         32.4633   28.4903    5.7805 C.3       10 UNK        -0.1982 
     62 C          33.6384   28.0188    3.5065 C.2       10 UNK         0.4970 
     63 O          33.7951   28.2403    2.3040 O.2       10 UNK        -0.4916 
     64 N          34.4046   27.1848    4.2172 N.am      11 UNK        -0.4279 
     65 CA         35.5777   26.4778    3.6866 C.3       11 UNK         0.1003 
     66 C          36.8588   27.3577    3.5618 C.2       11 UNK         0.5709 
     67 N          36.8464   28.6279    3.9537 N.am      11 UNK        -0.7358 
     68 O          37.8881   26.8808    3.0900 O.2       11 UNK        -0.4999 
     69 C69        35.8289   25.1469    4.4584 C.3       12 UNK        -0.0954 
     70 S70        35.9628   23.7228    3.3259 S.3       12 UNK        -0.2268 
     71 C71        34.3247   22.9406    3.5050 C.3       12 UNK         0.0203 
     72 H72        30.7024   19.7996    1.9110 H         1 UNK         0.0888 
     73 H73        31.5881   21.2744    2.3062 H         1 UNK         0.0888 
     74 H74        31.1989   20.1145    3.5767 H         1 UNK         0.0888 
     75 H75        30.3049   23.0646    2.4364 H         1 UNK         0.3017 
     76 H76        28.6452   24.4772    2.6520 H         1 UNK         0.0873 
     77 H77        27.4344   22.7106    4.8150 H         1 UNK         0.0745 
     78 H78        27.2290   24.4284    4.6331 H         1 UNK         0.0745 
     79 H79        30.6624   25.8870    5.8256 H         1 UNK         0.0705 
     80 H80        29.4002   26.0895    4.6393 H         1 UNK         0.0705 
     81 H81        32.3591   23.8139    5.1818 H         1 UNK         0.1334 
     82 H82        33.7231   24.1472    1.1364 H         1 UNK         0.1417 
     83 H83        30.2426   26.3090    2.4261 H         1 UNK         0.1562 
     84 H84        31.9261   24.9727   -0.5045 H         1 UNK         0.0748 
     85 H85        32.7298   26.4455   -0.0327 H         1 UNK         0.0748 
     86 H86        31.7322   28.5512    0.5464 H         1 UNK         0.0940 
     87 H87        31.2956   28.7345   -1.1237 H         1 UNK         0.0940 
     88 H88        30.1559   30.4783    0.0360 H         1 UNK         0.0703 
     89 H89        28.5735   28.5108   -1.2008 H         1 UNK         0.3081 
     90 H90        25.3696   29.5674   -0.5756 H         1 UNK         0.0719 
     91 H91        26.6967   30.4529   -3.1943 H         1 UNK         0.0809 
     92 H92        24.9679   30.2143   -2.9321 H         1 UNK         0.0809 
     93 H93        25.8124   31.5063   -2.0994 H         1 UNK         0.0809 
     94 H94        26.1067   28.0407   -2.7635 H         1 UNK         0.2990 
     95 H95        25.4773   25.6822   -2.3472 H         1 UNK         0.0690 
     96 H96        28.5551   25.7114   -2.4628 H         1 UNK         0.0788 
     97 H97        27.4873   26.4787   -3.6309 H         1 UNK         0.0788 
     98 H98        27.5102   24.7336   -3.4863 H         1 UNK         0.0788 
     99 H99        27.1316   24.7621   -0.1166 H         1 UNK         0.2993 
    100 H100       25.3952   22.0353    0.4174 H         1 UNK         0.0949 
    101 H101       27.7214   21.1876   -1.3939 H         1 UNK         0.0767 
    102 H102       27.0166   20.2018   -0.1118 H         1 UNK         0.0767 
    103 H103       26.0572   20.6328   -1.5156 H         1 UNK         0.0767 
    104 H104       28.3030   22.4651    0.6386 H         1 UNK         0.3013 
    105 H105       27.9918   28.0669    1.4484 H         1 UNK         0.3121 
    106 H106       28.8399   28.2426    4.1561 H         1 UNK         0.0774 
    107 H107       26.6390   27.1785    4.6147 H         1 UNK         0.0815 
    108 H108       26.0608   27.6070    3.0092 H         1 UNK         0.0815 
    109 H109       27.3576   26.4361    3.1931 H         1 UNK         0.0815 
    110 H110       27.0097   30.5258    2.2345 H         1 UNK         0.2987 
    111 H111       26.0615   32.0209    4.6275 H         1 UNK         0.0949 
    112 H112       25.5254   32.4545    1.6393 H         1 UNK         0.0806 
    113 H113       24.4465   31.6101    2.7495 H         1 UNK         0.0806 
    114 H114       24.7721   33.3204    2.9696 H         1 UNK         0.0806 
    115 H115       28.9254   31.7478    3.0071 H         1 UNK         0.3010 
    116 H116       29.6566   34.6211    3.3078 H         1 UNK         0.0829 
    117 H117       30.9748   34.4226    1.2068 H         1 UNK         0.0813 
    118 H118       30.3941   32.7700    0.9682 H         1 UNK         0.0813 
    119 H119       29.2793   34.1235    0.8919 H         1 UNK         0.0813 
    120 H120       32.2073   32.9510    2.0999 H         1 UNK         0.3038 
    121 H121       33.6317   33.1180    4.5915 H         1 UNK         0.0769 
    122 H122       35.5874   32.5666    3.1538 H         1 UNK         0.0811 
    123 H123       34.6051   33.8105    2.4039 H         1 UNK         0.0811 
    124 H124       34.5208   32.1459    1.8231 H         1 UNK         0.0811 
    125 H125       31.7555   30.5387    3.4478 H         1 UNK         0.3204 
    126 H126       31.5789   28.3752    3.8323 H         1 UNK         0.0748 
    127 H127       32.3643   27.4286    6.0031 H         1 UNK         0.0771 
    128 H128       33.3568   28.8507    6.2911 H         1 UNK         0.0771 
    129 H129       31.6056   28.9898    6.2314 H         1 UNK         0.0771 
    130 H130       34.2304   27.0856    5.2054 H         1 UNK         0.2980 
    131 H131       35.3302   26.2256    2.6537 H         1 UNK         0.0545 
    132 H132       37.6868   29.1753    3.8604 H         1 UNK         0.3459 
    133 H133       36.0053   29.0608    4.3141 H         1 UNK         0.3459 
    134 H134       36.7374   25.1913    5.0621 H         1 UNK         0.0616 
    135 H135       35.0292   24.9425    5.1721 H         1 UNK         0.0616 
    136 H136       34.2699   22.0831    2.8330 H         1 UNK         0.0634 
    137 H137       34.2361   22.5421    4.5170 H         1 UNK         0.0634 
@<TRIPOS>BOND
     1    1    2 1    
     2    1   72 1    
     3    1   73 1    
     4    1   74 1    
     5    2    3 2    
     6    2    4 am   BACKBONE|DICT|INTERRES
     7    4    5 1    
     8    4   75 1    
     9    5    6 1    
    10    5   35 1    
    11    5   76 1    
    12    6    7 1    
    13    6   77 1    
    14    6   78 1    
    15    7    8 1    
    16    8    9 1    
    17    8   79 1    
    18    8   80 1    
    19    9   10 ar   
    20    9   14 ar   
    21   10   11 ar   
    22   10   81 1    
    23   11   12 ar   
    24   11   71 1    
    25   12   13 ar   
    26   12   82 1    
    27   13   14 ar   
    28   13   15 1    
    29   14   83 1    
    30   15   16 1    
    31   15   84 1    
    32   15   85 1    
    33   16   17 1    
    34   17   18 1    
    35   17   86 1    
    36   17   87 1    
    37   18   19 1    
    38   18   37 1    
    39   18   88 1    
    40   19   20 am   BACKBONE|DICT|INTERRES
    41   19   89 1    
    42   20   21 2    
    43   20   22 1    
    44   22   23 1    
    45   22   24 1    
    46   22   90 1    
    47   23   91 1    
    48   23   92 1    
    49   23   93 1    
    50   24   25 am   BACKBONE|DICT|INTERRES
    51   24   94 1    
    52   25   26 2    
    53   25   27 1    
    54   27   28 1    
    55   27   29 1    
    56   27   95 1    
    57   28   96 1    
    58   28   97 1    
    59   28   98 1    
    60   29   30 am   BACKBONE|DICT|INTERRES
    61   29   99 1    
    62   30   31 2    
    63   30   32 1    
    64   32   33 1    
    65   32   34 1    
    66   32  100 1    
    67   33  101 1    
    68   33  102 1    
    69   33  103 1    
    70   34   35 am   BACKBONE|DICT|INTERRES
    71   34  104 1    
    72   35   36 2    
    73   37   38 2    
    74   37   39 am   BACKBONE|DICT|INTERRES
    75   39   40 1    
    76   39  105 1    
    77   40   41 1    
    78   40   42 1    
    79   40  106 1    
    80   41  107 1    
    81   41  108 1    
    82   41  109 1    
    83   42   43 2    
    84   42   44 am   BACKBONE|DICT|INTERRES
    85   44   45 1    
    86   44  110 1    
    87   45   46 1    
    88   45   47 1    
    89   45  111 1    
    90   46  112 1    
    91   46  113 1    
    92   46  114 1    
    93   47   48 2    
    94   47   49 am   BACKBONE|DICT|INTERRES
    95   49   50 1    
    96   49  115 1    
    97   50   51 1    
    98   50   52 1    
    99   50  116 1    
   100   51  117 1    
   101   51  118 1    
   102   51  119 1    
   103   52   53 2    
   104   52   54 am   BACKBONE|DICT|INTERRES
   105   54   55 1    
   106   54  120 1    
   107   55   56 1    
   108   55   57 1    
   109   55  121 1    
   110   56  122 1    
   111   56  123 1    
   112   56  124 1    
   113   57   58 2    
   114   57   59 am   BACKBONE|DICT|INTERRES
   115   59   60 1    
   116   59  125 1    
   117   60   61 1    
   118   60   62 1    
   119   60  126 1    
   120   61  127 1    
   121   61  128 1    
   122   61  129 1    
   123   62   63 2    
   124   62   64 am   BACKBONE|DICT|INTERRES
   125   64   65 1    
   126   64  130 1    
   127   65   66 1    
   128   65   69 1    
   129   65  131 1    
   130   66   67 am   BACKBONE|DICT|INTERRES
   131   66   68 2    
   132   67  132 1    
   133   67  133 1    
   134   69   70 1    
   135   69  134 1    
   136   69  135 1    
   137   70   71 1    
   138   71  136 1    
   139   71  137 1    
@<TRIPOS>SUBSTRUCTURE
     1 UNK         1 GROUP             0       ****    0 ROOT    
