@<TRIPOS>MOLECULE
3R136
137   139    1
SMALL
USER_CHARGES


@<TRIPOS>ATOM
      1 CA         24.0978   19.7861   -0.3769 C.3       0 UNK        -0.1979 
      2 C          25.6138   19.8598   -0.4862 C.2       0 UNK         0.4864 
      3 O          26.2088   19.1054   -1.2577 O.2       0 UNK        -0.5359 
      4 N          26.2429   20.7563    0.2849 N.am      1 UNK        -0.4318 
      5 CA         27.6851   21.0127    0.2594 C.3       1 UNK         0.0824 
      6 C6         28.1258   21.8108    1.5118 C.3       12 UNK        -0.0944 
      7 S7         29.9366   21.8225    1.7534 S.3       12 UNK        -0.2672 
      8 C8         30.0720   21.8726    3.5688 C.3       12 UNK         0.0333 
      9 C9         29.6255   23.2154    4.1284 C.ar      12 UNK        -0.0807 
     10 C10        30.5267   24.2812    4.2069 C.ar      12 UNK        -0.0894 
     11 C11        30.1177   25.5200    4.7107 C.ar      12 UNK        -0.0804 
     12 C12        28.8069   25.6800    5.1689 C.ar      12 UNK        -0.0824 
     13 C13        27.8813   24.6411    5.0322 C.ar      12 UNK        -0.0762 
     14 C14        28.3035   23.4026    4.5413 C.ar      12 UNK        -0.0782 
     15 C15        26.4087   24.8687    5.3390 C.3       12 UNK         0.0230 
     16 S16        25.4627   25.1588    3.8016 S.3       12 UNK        -0.2608 
     17 C17        25.7788   26.9278    3.4673 C.3       12 UNK        -0.0989 
     18 CA         27.0504   27.1797    2.6116 C.3       5 UNK         0.0716 
     19 N          27.0471   26.5252    1.3052 N.am      5 UNK        -0.4135 
     20 C          26.3901   26.8926    0.1994 C.2       4 UNK         0.5031 
     21 O          25.5439   27.7876    0.1655 O.2       4 UNK        -0.5229 
     22 CA         26.7795   26.1410   -1.0938 C.3       4 UNK         0.0329 
     23 CB         26.6326   27.0268   -2.3487 C.3       4 UNK        -0.2001 
     24 N          28.1213   25.5295   -1.0558 N.am      4 UNK        -0.4303 
     25 C          29.2960   26.1526   -0.8429 C.2       3 UNK         0.5044 
     26 O          29.3893   27.3568   -0.6083 O.2       3 UNK        -0.5152 
     27 CA         30.5827   25.3041   -0.8073 C.3       3 UNK         0.0319 
     28 CB         31.1660   25.2923    0.6171 C.3       3 UNK        -0.2001 
     29 N          30.3918   23.9224   -1.2503 N.am      3 UNK        -0.4354 
     30 C          30.2104   23.5368   -2.5222 C.2       2 UNK         0.4964 
     31 O          30.2818   24.3002   -3.4852 O.2       2 UNK        -0.5047 
     32 CA         29.8545   22.0557   -2.7592 C.3       2 UNK         0.0288 
     33 CB         31.1010   21.2653   -3.1895 C.3       2 UNK        -0.2113 
     34 N          29.2447   21.3980   -1.5964 N.am      2 UNK        -0.4145 
     35 C          28.0784   21.7507   -1.0359 C.2       1 UNK         0.5006 
     36 O          27.3663   22.6670   -1.4568 O.2       1 UNK        -0.5103 
     37 C          27.4822   28.6623    2.5635 C.2       5 UNK         0.5055 
     38 O          26.9306   29.4867    3.2967 O.2       5 UNK        -0.5220 
     39 N          28.4970   28.9806    1.7437 N.am      6 UNK        -0.4450 
     40 CA         29.1249   30.3030    1.6468 C.3       6 UNK         0.0367 
     41 CB         29.8957   30.4007    0.3184 C.3       6 UNK        -0.1929 
     42 C          30.0151   30.6355    2.8641 C.2       6 UNK         0.5070 
     43 O          31.2043   30.9212    2.7125 O.2       6 UNK        -0.5237 
     44 N          29.4231   30.6306    4.0651 N.am      7 UNK        -0.4739 
     45 CA         30.0672   31.0157    5.3270 C.3       7 UNK         0.0276 
     46 CB         29.1079   30.7453    6.4950 C.3       7 UNK        -0.1927 
     47 C          30.5462   32.4796    5.3344 C.2       7 UNK         0.5013 
     48 O          31.5771   32.7792    5.9363 O.2       7 UNK        -0.5193 
     49 N          29.8329   33.3463    4.5998 N.am      8 UNK        -0.4253 
     50 CA         30.1960   34.7421    4.3358 C.3       8 UNK         0.0242 
     51 CB         29.0237   35.4407    3.6280 C.3       8 UNK        -0.2000 
     52 C          31.4923   34.9083    3.5174 C.2       8 UNK         0.4948 
     53 O          32.1243   35.9603    3.6122 O.2       8 UNK        -0.5275 
     54 N          31.8859   33.8724    2.7609 N.am      9 UNK        -0.4246 
     55 CA         33.1513   33.7943    2.0250 C.3       9 UNK         0.0261 
     56 CB         32.8988   33.1180    0.6645 C.3       9 UNK        -0.1959 
     57 C          34.2395   33.0585    2.8349 C.2       9 UNK         0.5033 
     58 O          35.2033   32.5722    2.2422 O.2       9 UNK        -0.5390 
     59 N          34.0656   32.9828    4.1640 N.am      10 UNK        -0.4215 
     60 CA         34.9128   32.3068    5.1527 C.3       10 UNK         0.0240 
     61 CB         36.3596   32.8483    5.1412 C.3       10 UNK        -0.1982 
     62 C          34.8383   30.7689    5.0878 C.2       10 UNK         0.4970 
     63 O          35.7550   30.1037    5.5737 O.2       10 UNK        -0.4916 
     64 N          33.7350   30.2314    4.5460 N.am      11 UNK        -0.4279 
     65 CA         33.4233   28.7966    4.4749 C.3       11 UNK         0.1003 
     66 C          34.3923   28.0063    3.5413 C.2       11 UNK         0.5709 
     67 N          34.5613   26.7067    3.7448 N.am      11 UNK        -0.7358 
     68 O          34.9552   28.5514    2.5940 O.2       11 UNK        -0.4999 
     69 C69        33.2357   28.1850    5.9036 C.3       12 UNK        -0.0954 
     70 S70        32.2117   26.6770    6.0926 S.3       12 UNK        -0.2268 
     71 C71        31.0683   26.7048    4.6824 C.3       12 UNK         0.0203 
     72 H72        23.7916   18.7861   -0.0707 H         1 UNK         0.0888 
     73 H73        23.7060   20.4978    0.3496 H         1 UNK         0.0888 
     74 H74        23.6416   20.0019   -1.3427 H         1 UNK         0.0888 
     75 H75        25.6981   21.3692    0.8741 H         1 UNK         0.3017 
     76 H76        28.1873   20.0424    0.2751 H         1 UNK         0.0873 
     77 H77        27.7616   22.8400    1.4804 H         1 UNK         0.0745 
     78 H78        27.6736   21.3577    2.3950 H         1 UNK         0.0745 
     79 H79        29.4906   21.0593    4.0060 H         1 UNK         0.0705 
     80 H80        31.1101   21.6863    3.8480 H         1 UNK         0.0705 
     81 H81        31.5409   24.1536    3.8530 H         1 UNK         0.1334 
     82 H82        28.4834   26.6408    5.5460 H         1 UNK         0.1417 
     83 H83        27.5895   22.5961    4.4469 H         1 UNK         0.1562 
     84 H84        26.2738   25.7022    6.0300 H         1 UNK         0.0748 
     85 H85        26.0032   23.9891    5.8412 H         1 UNK         0.0748 
     86 H86        25.8441   27.4444    4.4266 H         1 UNK         0.0940 
     87 H87        24.9047   27.3447    2.9641 H         1 UNK         0.0940 
     88 H88        27.8839   26.7034    3.1098 H         1 UNK         0.0703 
     89 H89        27.6946   25.7575    1.2119 H         1 UNK         0.3081 
     90 H90        26.0732   25.3145   -1.1858 H         1 UNK         0.0719 
     91 H91        27.2702   27.9100   -2.2953 H         1 UNK         0.0809 
     92 H92        26.8943   26.4781   -3.2534 H         1 UNK         0.0809 
     93 H93        25.6054   27.3735   -2.4679 H         1 UNK         0.0809 
     94 H94        28.1307   24.5279   -1.2221 H         1 UNK         0.2990 
     95 H95        31.3061   25.7825   -1.4708 H         1 UNK         0.0690 
     96 H96        32.0941   24.7222    0.6637 H         1 UNK         0.0788 
     97 H97        30.4690   24.8574    1.3340 H         1 UNK         0.0788 
     98 H98        31.3935   26.3036    0.9576 H         1 UNK         0.0788 
     99 H99        30.3352   23.2207   -0.5251 H         1 UNK         0.2993 
    100 H100       29.1282   22.0262   -3.5744 H         1 UNK         0.0949 
    101 H101       31.5629   21.7137   -4.0704 H         1 UNK         0.0767 
    102 H102       31.8557   21.2412   -2.4022 H         1 UNK         0.0767 
    103 H103       30.8496   20.2362   -3.4472 H         1 UNK         0.0767 
    104 H104       29.7772   20.6507   -1.1734 H         1 UNK         0.3013 
    105 H105       28.8705   28.2705    1.1206 H         1 UNK         0.3121 
    106 H106       28.3327   31.0540    1.6190 H         1 UNK         0.0774 
    107 H107       30.7266   29.6949    0.2813 H         1 UNK         0.0815 
    108 H108       30.3074   31.4004    0.1769 H         1 UNK         0.0815 
    109 H109       29.2464   30.1971   -0.5334 H         1 UNK         0.0815 
    110 H110       28.4412   30.3666    4.0983 H         1 UNK         0.2987 
    111 H111       30.9474   30.3842    5.4585 H         1 UNK         0.0949 
    112 H112       28.1886   31.3257    6.4069 H         1 UNK         0.0806 
    113 H113       28.8357   29.6908    6.5473 H         1 UNK         0.0806 
    114 H114       29.5701   31.0067    7.4481 H         1 UNK         0.0806 
    115 H115       28.9991   33.0011    4.1467 H         1 UNK         0.3010 
    116 H116       30.3567   35.2305    5.2994 H         1 UNK         0.0829 
    117 H117       28.1173   35.4081    4.2329 H         1 UNK         0.0813 
    118 H118       29.2494   36.4922    3.4444 H         1 UNK         0.0813 
    119 H119       28.8023   34.9823    2.6633 H         1 UNK         0.0813 
    120 H120       31.3376   33.0197    2.7689 H         1 UNK         0.3038 
    121 H121       33.5263   34.8011    1.8303 H         1 UNK         0.0769 
    122 H122       32.6373   32.0658    0.7793 H         1 UNK         0.0811 
    123 H123       33.7887   33.1621    0.0355 H         1 UNK         0.0811 
    124 H124       32.0937   33.6087    0.1177 H         1 UNK         0.0811 
    125 H125       33.2183   33.3845    4.5479 H         1 UNK         0.3204 
    126 H126       34.4843   32.5707    6.1208 H         1 UNK         0.0748 
    127 H127       36.9203   32.4819    6.0020 H         1 UNK         0.0771 
    128 H128       36.9034   32.5385    4.2485 H         1 UNK         0.0771 
    129 H129       36.3771   33.9372    5.1857 H         1 UNK         0.0771 
    130 H130       33.0641   30.8411    4.0982 H         1 UNK         0.2980 
    131 H131       32.4667   28.7889    3.9587 H         1 UNK         0.0545 
    132 H132       35.1722   26.1862    3.1356 H         1 UNK         0.3459 
    133 H133       34.0983   26.2480    4.5149 H         1 UNK         0.3459 
    134 H134       32.7681   28.9294    6.5501 H         1 UNK         0.0616 
    135 H135       34.2077   27.9864    6.3581 H         1 UNK         0.0616 
    136 H136       31.6272   26.6771    3.7465 H         1 UNK         0.0634 
    137 H137       30.5078   27.6415    4.6893 H         1 UNK         0.0634 
@<TRIPOS>BOND
     1    1    2 1    
     2    1   72 1    
     3    1   73 1    
     4    1   74 1    
     5    2    3 2    
     6    2    4 am   BACKBONE|DICT|INTERRES
     7    4    5 1    
     8    4   75 1    
     9    5    6 1    
    10    5   35 1    
    11    5   76 1    
    12    6    7 1    
    13    6   77 1    
    14    6   78 1    
    15    7    8 1    
    16    8    9 1    
    17    8   79 1    
    18    8   80 1    
    19    9   10 ar   
    20    9   14 ar   
    21   10   11 ar   
    22   10   81 1    
    23   11   12 ar   
    24   11   71 1    
    25   12   13 ar   
    26   12   82 1    
    27   13   14 ar   
    28   13   15 1    
    29   14   83 1    
    30   15   16 1    
    31   15   84 1    
    32   15   85 1    
    33   16   17 1    
    34   17   18 1    
    35   17   86 1    
    36   17   87 1    
    37   18   19 1    
    38   18   37 1    
    39   18   88 1    
    40   19   20 am   BACKBONE|DICT|INTERRES
    41   19   89 1    
    42   20   21 2    
    43   20   22 1    
    44   22   23 1    
    45   22   24 1    
    46   22   90 1    
    47   23   91 1    
    48   23   92 1    
    49   23   93 1    
    50   24   25 am   BACKBONE|DICT|INTERRES
    51   24   94 1    
    52   25   26 2    
    53   25   27 1    
    54   27   28 1    
    55   27   29 1    
    56   27   95 1    
    57   28   96 1    
    58   28   97 1    
    59   28   98 1    
    60   29   30 am   BACKBONE|DICT|INTERRES
    61   29   99 1    
    62   30   31 2    
    63   30   32 1    
    64   32   33 1    
    65   32   34 1    
    66   32  100 1    
    67   33  101 1    
    68   33  102 1    
    69   33  103 1    
    70   34   35 am   BACKBONE|DICT|INTERRES
    71   34  104 1    
    72   35   36 2    
    73   37   38 2    
    74   37   39 am   BACKBONE|DICT|INTERRES
    75   39   40 1    
    76   39  105 1    
    77   40   41 1    
    78   40   42 1    
    79   40  106 1    
    80   41  107 1    
    81   41  108 1    
    82   41  109 1    
    83   42   43 2    
    84   42   44 am   BACKBONE|DICT|INTERRES
    85   44   45 1    
    86   44  110 1    
    87   45   46 1    
    88   45   47 1    
    89   45  111 1    
    90   46  112 1    
    91   46  113 1    
    92   46  114 1    
    93   47   48 2    
    94   47   49 am   BACKBONE|DICT|INTERRES
    95   49   50 1    
    96   49  115 1    
    97   50   51 1    
    98   50   52 1    
    99   50  116 1    
   100   51  117 1    
   101   51  118 1    
   102   51  119 1    
   103   52   53 2    
   104   52   54 am   BACKBONE|DICT|INTERRES
   105   54   55 1    
   106   54  120 1    
   107   55   56 1    
   108   55   57 1    
   109   55  121 1    
   110   56  122 1    
   111   56  123 1    
   112   56  124 1    
   113   57   58 2    
   114   57   59 am   BACKBONE|DICT|INTERRES
   115   59   60 1    
   116   59  125 1    
   117   60   61 1    
   118   60   62 1    
   119   60  126 1    
   120   61  127 1    
   121   61  128 1    
   122   61  129 1    
   123   62   63 2    
   124   62   64 am   BACKBONE|DICT|INTERRES
   125   64   65 1    
   126   64  130 1    
   127   65   66 1    
   128   65   69 1    
   129   65  131 1    
   130   66   67 am   BACKBONE|DICT|INTERRES
   131   66   68 2    
   132   67  132 1    
   133   67  133 1    
   134   69   70 1    
   135   69  134 1    
   136   69  135 1    
   137   70   71 1    
   138   71  136 1    
   139   71  137 1    
@<TRIPOS>SUBSTRUCTURE
     1 UNK         1 GROUP             0       ****    0 ROOT    
