@<TRIPOS>MOLECULE
3R136
137   139    1
SMALL
USER_CHARGES


@<TRIPOS>ATOM
      1 CA         26.0045   24.5580    2.6789 C.3       0 UNK        -0.1979 
      2 C          26.6370   23.3341    2.0383 C.2       0 UNK         0.4864 
      3 O          26.5882   22.2499    2.6208 O.2       0 UNK        -0.5359 
      4 N          27.2213   23.4762    0.8402 N.am      1 UNK        -0.4318 
      5 CA         27.9446   22.4156    0.1201 C.3       1 UNK         0.0824 
      6 C6         29.0407   22.9908   -0.8235 C.3       12 UNK        -0.0944 
      7 S7         30.0591   24.3522   -0.1529 S.3       12 UNK        -0.2672 
      8 C8         30.6086   23.7722    1.4824 C.3       12 UNK         0.0333 
      9 C9         30.9021   24.9801    2.3536 C.ar      12 UNK        -0.0807 
     10 C10        32.1665   25.5760    2.3348 C.ar      12 UNK        -0.0894 
     11 C11        32.4044   26.7515    3.0524 C.ar      12 UNK        -0.0804 
     12 C12        31.3583   27.3331    3.7756 C.ar      12 UNK        -0.0824 
     13 C13        30.1040   26.7207    3.8443 C.ar      12 UNK        -0.0762 
     14 C14        29.8864   25.5358    3.1374 C.ar      12 UNK        -0.0782 
     15 C15        28.9948   27.3417    4.6897 C.3       12 UNK         0.0230 
     16 S16        27.4835   27.7322    3.7433 S.3       12 UNK        -0.2608 
     17 C17        28.1438   28.6957    2.3469 C.3       12 UNK        -0.0989 
     18 CA         28.0553   27.8848    1.0297 C.3       5 UNK         0.0716 
     19 N          26.6899   27.8581    0.4967 N.am      5 UNK        -0.4135 
     20 C          26.2286   26.9376   -0.3574 C.2       4 UNK         0.5031 
     21 O          26.8602   25.9281   -0.6817 O.2       4 UNK        -0.5229 
     22 CA         24.8331   27.2048   -0.9545 C.3       4 UNK         0.0329 
     23 CB         24.9112   28.3021   -2.0298 C.3       4 UNK        -0.2001 
     24 N          24.2509   26.0027   -1.5573 N.am      4 UNK        -0.4303 
     25 C          23.7792   24.9534   -0.8727 C.2       3 UNK         0.5044 
     26 O          23.6866   24.9314    0.3562 O.2       3 UNK        -0.5152 
     27 CA         23.3739   23.7004   -1.6694 C.3       3 UNK         0.0319 
     28 CB         23.7783   23.7464   -3.1629 C.3       3 UNK        -0.2001 
     29 N          24.0031   22.5736   -0.9903 N.am      3 UNK        -0.4354 
     30 C          23.8409   21.2637   -1.2122 C.2       2 UNK         0.4964 
     31 O          23.0398   20.7987   -2.0246 O.2       2 UNK        -0.5047 
     32 CA         24.7306   20.3168   -0.3724 C.3       2 UNK         0.0288 
     33 CB         25.0446   18.9896   -1.0960 C.3       2 UNK        -0.2113 
     34 N          25.9600   20.9684    0.1105 N.am      2 UNK        -0.4145 
     35 C          26.9549   21.4896   -0.6269 C.2       1 UNK         0.5006 
     36 O          27.0611   21.3225   -1.8436 O.2       1 UNK        -0.5103 
     37 C          29.0136   28.4716   -0.0193 C.2       5 UNK         0.5055 
     38 O          28.6386   29.4062   -0.7320 O.2       5 UNK        -0.5220 
     39 N          30.2436   27.9425   -0.0614 N.am      6 UNK        -0.4450 
     40 CA         31.3099   28.4233   -0.9420 C.3       6 UNK         0.0367 
     41 CB         32.4401   27.3833   -1.0053 C.3       6 UNK        -0.1929 
     42 C          31.8574   29.7950   -0.5132 C.2       6 UNK         0.5070 
     43 O          32.0734   30.6517   -1.3708 O.2       6 UNK        -0.5237 
     44 N          32.0639   29.9784    0.7981 N.am      7 UNK        -0.4739 
     45 CA         32.6100   31.1920    1.4052 C.3       7 UNK         0.0276 
     46 CB         34.0973   31.3712    1.0275 C.3       7 UNK        -0.1927 
     47 C          32.4135   31.1133    2.9232 C.2       7 UNK         0.5013 
     48 O          33.3646   30.8187    3.6497 O.2       7 UNK        -0.5193 
     49 N          31.1807   31.3543    3.3907 N.am      8 UNK        -0.4253 
     50 CA         30.7871   31.2772    4.8075 C.3       8 UNK         0.0242 
     51 CB         29.3072   31.6646    4.9538 C.3       8 UNK        -0.2000 
     52 C          31.6659   32.1025    5.7681 C.2       8 UNK         0.4948 
     53 O          31.9370   31.6480    6.8792 O.2       8 UNK        -0.5275 
     54 N          32.1420   33.2653    5.3032 N.am      9 UNK        -0.4246 
     55 CA         33.0800   34.1290    6.0236 C.3       9 UNK         0.0261 
     56 CB         33.1143   35.5068    5.3417 C.3       9 UNK        -0.1959 
     57 C          34.5069   33.5550    6.1408 C.2       9 UNK         0.5033 
     58 O          35.2370   33.9763    7.0393 O.2       9 UNK        -0.5390 
     59 N          34.8926   32.6353    5.2436 N.am      10 UNK        -0.4215 
     60 CA         36.2069   31.9913    5.2355 C.3       10 UNK         0.0240 
     61 CB         36.6481   31.7052    3.7902 C.3       10 UNK        -0.1982 
     62 C          36.1946   30.7028    6.0675 C.2       10 UNK         0.4970 
     63 O          37.0842   30.5227    6.9004 O.2       10 UNK        -0.4916 
     64 N          35.1979   29.8357    5.8361 N.am      11 UNK        -0.4279 
     65 CA         35.0177   28.5894    6.6007 C.3       11 UNK         0.1003 
     66 C          34.5268   28.8133    8.0600 C.2       11 UNK         0.5709 
     67 N          33.7851   29.8725    8.3618 N.am      11 UNK        -0.7358 
     68 O          34.8342   28.0108    8.9383 O.2       11 UNK        -0.4999 
     69 C69        34.1053   27.5731    5.8694 C.3       12 UNK        -0.0954 
     70 S70        34.8683   26.8562    4.3713 S.3       12 UNK        -0.2268 
     71 C71        33.7801   27.4066    3.0177 C.3       12 UNK         0.0203 
     72 H72        26.1905   25.4608    2.1019 H         1 UNK         0.0888 
     73 H73        26.4058   24.7093    3.6805 H         1 UNK         0.0888 
     74 H74        24.9264   24.4244    2.7616 H         1 UNK         0.0888 
     75 H75        27.1954   24.3754    0.3615 H         1 UNK         0.3017 
     76 H76        28.4468   21.7787    0.8506 H         1 UNK         0.0873 
     77 H77        28.5834   23.3931   -1.7298 H         1 UNK         0.0745 
     78 H78        29.7084   22.1927   -1.1525 H         1 UNK         0.0745 
     79 H79        29.8508   23.1556    1.9635 H         1 UNK         0.0705 
     80 H80        31.4961   23.1476    1.3708 H         1 UNK         0.0705 
     81 H81        32.9575   25.1383    1.7407 H         1 UNK         0.1334 
     82 H82        31.5234   28.2613    4.2982 H         1 UNK         0.1417 
     83 H83        28.9123   25.0689    3.1674 H         1 UNK         0.1562 
     84 H84        29.3420   28.2546    5.1754 H         1 UNK         0.0748 
     85 H85        28.7355   26.6509    5.4930 H         1 UNK         0.0748 
     86 H86        29.1712   28.9852    2.5756 H         1 UNK         0.0940 
     87 H87        27.5890   29.6324    2.2677 H         1 UNK         0.0940 
     88 H88        28.3687   26.8568    1.2219 H         1 UNK         0.0703 
     89 H89        26.1240   28.6708    0.6905 H         1 UNK         0.3081 
     90 H90        24.1743   27.5426   -0.1515 H         1 UNK         0.0719 
     91 H91        25.5675   28.0140   -2.8523 H         1 UNK         0.0809 
     92 H92        23.9276   28.5213   -2.4460 H         1 UNK         0.0809 
     93 H93        25.2997   29.2345   -1.6179 H         1 UNK         0.0809 
     94 H94        24.3373   25.9158   -2.5591 H         1 UNK         0.2990 
     95 H95        22.2905   23.5943   -1.5919 H         1 UNK         0.0690 
     96 H96        23.4657   22.8449   -3.6893 H         1 UNK         0.0788 
     97 H97        24.8585   23.8383   -3.2870 H         1 UNK         0.0788 
     98 H98        23.3044   24.5820   -3.6793 H         1 UNK         0.0788 
     99 H99        24.6336   22.8520   -0.2507 H         1 UNK         0.2993 
    100 H100       24.1479   20.0748    0.5178 H         1 UNK         0.0949 
    101 H101       24.1298   18.4345   -1.3074 H         1 UNK         0.0767 
    102 H102       25.5491   19.1544   -2.0484 H         1 UNK         0.0767 
    103 H103       25.6788   18.3459   -0.4864 H         1 UNK         0.0767 
    104 H104       25.9878   21.1778    1.1061 H         1 UNK         0.3013 
    105 H105       30.4633   27.1559    0.5352 H         1 UNK         0.3121 
    106 H106       30.8961   28.5304   -1.9473 H         1 UNK         0.0774 
    107 H107       32.0774   26.4247   -1.3768 H         1 UNK         0.0815 
    108 H108       32.8942   27.2150   -0.0293 H         1 UNK         0.0815 
    109 H109       33.2324   27.7113   -1.6796 H         1 UNK         0.0815 
    110 H110       31.8452   29.2248    1.4343 H         1 UNK         0.2987 
    111 H111       32.0527   32.0567    1.0387 H         1 UNK         0.0949 
    112 H112       34.6861   30.4899    1.2841 H         1 UNK         0.0806 
    113 H113       34.2242   31.5559   -0.0388 H         1 UNK         0.0806 
    114 H114       34.5338   32.2235    1.5497 H         1 UNK         0.0806 
    115 H115       30.4536   31.5953    2.7320 H         1 UNK         0.3010 
    116 H116       30.8897   30.2376    5.1176 H         1 UNK         0.0829 
    117 H117       28.6617   30.9935    4.3871 H         1 UNK         0.0813 
    118 H118       28.9902   31.6076    5.9962 H         1 UNK         0.0813 
    119 H119       29.1194   32.6829    4.6114 H         1 UNK         0.0813 
    120 H120       31.8666   33.5604    4.3778 H         1 UNK         0.3038 
    121 H121       32.7014   34.2619    7.0395 H         1 UNK         0.0769 
    122 H122       33.4722   35.4405    4.3134 H         1 UNK         0.0811 
    123 H123       33.7787   36.1893    5.8738 H         1 UNK         0.0811 
    124 H124       32.1264   35.9678    5.3261 H         1 UNK         0.0811 
    125 H125       34.2133   32.2705    4.5831 H         1 UNK         0.3204 
    126 H126       36.9441   32.6679    5.6736 H         1 UNK         0.0748 
    127 H127       36.6452   32.6129    3.1866 H         1 UNK         0.0771 
    128 H128       37.6623   31.3045    3.7682 H         1 UNK         0.0771 
    129 H129       36.0037   30.9742    3.3024 H         1 UNK         0.0771 
    130 H130       34.5079   30.0475    5.1236 H         1 UNK         0.2980 
    131 H131       36.0011   28.1233    6.6914 H         1 UNK         0.0545 
    132 H132       33.4857   29.9977    9.3151 H         1 UNK         0.3459 
    133 H133       33.4462   30.5088    7.6501 H         1 UNK         0.3459 
    134 H134       33.8641   26.7308    6.5207 H         1 UNK         0.0616 
    135 H135       33.1582   28.0507    5.6376 H         1 UNK         0.0616 
    136 H136       34.2725   27.1779    2.0717 H         1 UNK         0.0634 
    137 H137       33.6914   28.4866    3.0468 H         1 UNK         0.0634 
@<TRIPOS>BOND
     1    1    2 1    
     2    1   72 1    
     3    1   73 1    
     4    1   74 1    
     5    2    3 2    
     6    2    4 am   BACKBONE|DICT|INTERRES
     7    4    5 1    
     8    4   75 1    
     9    5    6 1    
    10    5   35 1    
    11    5   76 1    
    12    6    7 1    
    13    6   77 1    
    14    6   78 1    
    15    7    8 1    
    16    8    9 1    
    17    8   79 1    
    18    8   80 1    
    19    9   10 ar   
    20    9   14 ar   
    21   10   11 ar   
    22   10   81 1    
    23   11   12 ar   
    24   11   71 1    
    25   12   13 ar   
    26   12   82 1    
    27   13   14 ar   
    28   13   15 1    
    29   14   83 1    
    30   15   16 1    
    31   15   84 1    
    32   15   85 1    
    33   16   17 1    
    34   17   18 1    
    35   17   86 1    
    36   17   87 1    
    37   18   19 1    
    38   18   37 1    
    39   18   88 1    
    40   19   20 am   BACKBONE|DICT|INTERRES
    41   19   89 1    
    42   20   21 2    
    43   20   22 1    
    44   22   23 1    
    45   22   24 1    
    46   22   90 1    
    47   23   91 1    
    48   23   92 1    
    49   23   93 1    
    50   24   25 am   BACKBONE|DICT|INTERRES
    51   24   94 1    
    52   25   26 2    
    53   25   27 1    
    54   27   28 1    
    55   27   29 1    
    56   27   95 1    
    57   28   96 1    
    58   28   97 1    
    59   28   98 1    
    60   29   30 am   BACKBONE|DICT|INTERRES
    61   29   99 1    
    62   30   31 2    
    63   30   32 1    
    64   32   33 1    
    65   32   34 1    
    66   32  100 1    
    67   33  101 1    
    68   33  102 1    
    69   33  103 1    
    70   34   35 am   BACKBONE|DICT|INTERRES
    71   34  104 1    
    72   35   36 2    
    73   37   38 2    
    74   37   39 am   BACKBONE|DICT|INTERRES
    75   39   40 1    
    76   39  105 1    
    77   40   41 1    
    78   40   42 1    
    79   40  106 1    
    80   41  107 1    
    81   41  108 1    
    82   41  109 1    
    83   42   43 2    
    84   42   44 am   BACKBONE|DICT|INTERRES
    85   44   45 1    
    86   44  110 1    
    87   45   46 1    
    88   45   47 1    
    89   45  111 1    
    90   46  112 1    
    91   46  113 1    
    92   46  114 1    
    93   47   48 2    
    94   47   49 am   BACKBONE|DICT|INTERRES
    95   49   50 1    
    96   49  115 1    
    97   50   51 1    
    98   50   52 1    
    99   50  116 1    
   100   51  117 1    
   101   51  118 1    
   102   51  119 1    
   103   52   53 2    
   104   52   54 am   BACKBONE|DICT|INTERRES
   105   54   55 1    
   106   54  120 1    
   107   55   56 1    
   108   55   57 1    
   109   55  121 1    
   110   56  122 1    
   111   56  123 1    
   112   56  124 1    
   113   57   58 2    
   114   57   59 am   BACKBONE|DICT|INTERRES
   115   59   60 1    
   116   59  125 1    
   117   60   61 1    
   118   60   62 1    
   119   60  126 1    
   120   61  127 1    
   121   61  128 1    
   122   61  129 1    
   123   62   63 2    
   124   62   64 am   BACKBONE|DICT|INTERRES
   125   64   65 1    
   126   64  130 1    
   127   65   66 1    
   128   65   69 1    
   129   65  131 1    
   130   66   67 am   BACKBONE|DICT|INTERRES
   131   66   68 2    
   132   67  132 1    
   133   67  133 1    
   134   69   70 1    
   135   69  134 1    
   136   69  135 1    
   137   70   71 1    
   138   71  136 1    
   139   71  137 1    
@<TRIPOS>SUBSTRUCTURE
     1 UNK         1 GROUP             0       ****    0 ROOT    
