@<TRIPOS>MOLECULE
3R136
137   139    1
SMALL
USER_CHARGES


@<TRIPOS>ATOM
      1 CA         29.0996   21.6050   -1.2965 C.3       0 UNK        -0.1979 
      2 C          27.9116   21.3332   -0.3780 C.2       0 UNK         0.4864 
      3 O          26.9888   20.6297   -0.7860 O.2       0 UNK        -0.5359 
      4 N          27.8688   21.8633    0.8506 N.am      1 UNK        -0.4318 
      5 CA         28.8445   22.7504    1.4890 C.3       1 UNK         0.0824 
      6 C6         29.6451   22.0141    2.6008 C.3       12 UNK        -0.0944 
      7 S7         31.0092   21.0196    1.9022 S.3       12 UNK        -0.2672 
      8 C8         32.5032   21.9713    2.3624 C.3       12 UNK         0.0333 
      9 C9         32.3698   23.4616    2.0722 C.ar      12 UNK        -0.0807 
     10 C10        32.4046   24.3851    3.1217 C.ar      12 UNK        -0.0894 
     11 C11        32.1872   25.7454    2.8849 C.ar      12 UNK        -0.0804 
     12 C12        31.9270   26.1764    1.5785 C.ar      12 UNK        -0.0824 
     13 C13        31.9004   25.2635    0.5199 C.ar      12 UNK        -0.0762 
     14 C14        32.1541   23.9120    0.7673 C.ar      12 UNK        -0.0782 
     15 C15        31.4895   25.7149   -0.8707 C.3       12 UNK         0.0230 
     16 S16        29.6995   25.4633   -1.0399 S.3       12 UNK        -0.2608 
     17 C17        29.2861   26.1882   -2.6629 C.3       12 UNK        -0.0989 
     18 CA         28.1026   27.2026   -2.6123 C.3       5 UNK         0.0716 
     19 N          26.9893   26.7398   -1.7877 N.am      5 UNK        -0.4135 
     20 C          25.9674   25.9910   -2.2189 C.2       4 UNK         0.5031 
     21 O          25.8028   25.6817   -3.4003 O.2       4 UNK        -0.5229 
     22 CA         24.9658   25.4605   -1.1714 C.3       4 UNK         0.0329 
     23 CB         25.1213   23.9401   -1.0115 C.3       4 UNK        -0.2001 
     24 N          25.0997   26.0806    0.1481 N.am      4 UNK        -0.4303 
     25 C          24.7247   27.3312    0.4490 C.2       3 UNK         0.5044 
     26 O          24.1412   28.0765   -0.3380 O.2       3 UNK        -0.5152 
     27 CA         25.0777   27.8533    1.8549 C.3       3 UNK         0.0319 
     28 CB         23.8401   27.8236    2.7657 C.3       3 UNK        -0.2001 
     29 N          26.1774   27.1439    2.5199 N.am      3 UNK        -0.4354 
     30 C          27.4332   27.0357    2.0642 C.2       2 UNK         0.4964 
     31 O          27.8133   27.4999    0.9883 O.2       2 UNK        -0.5047 
     32 CA         28.4484   26.3016    2.9541 C.3       2 UNK         0.0288 
     33 CB         27.9953   26.1110    4.4193 C.3       2 UNK        -0.2113 
     34 N          28.8737   25.0250    2.3734 N.am      2 UNK        -0.4145 
     35 C          28.1014   23.9760    2.0530 C.2       1 UNK         0.5006 
     36 O          26.8745   23.9491    2.1944 O.2       1 UNK        -0.5103 
     37 C          28.4744   28.6322   -2.1851 C.2       5 UNK         0.5055 
     38 O          27.7616   29.5698   -2.5476 O.2       5 UNK        -0.5220 
     39 N          29.5963   28.7857   -1.4712 N.am      6 UNK        -0.4450 
     40 CA         30.2119   30.0762   -1.1515 C.3       6 UNK         0.0367 
     41 CB         31.6564   29.8489   -0.6746 C.3       6 UNK        -0.1929 
     42 C          29.4405   30.9097   -0.1165 C.2       6 UNK         0.5070 
     43 O          29.4946   32.1374   -0.1865 O.2       6 UNK        -0.5237 
     44 N          28.7815   30.2382    0.8421 N.am      7 UNK        -0.4739 
     45 CA         28.0428   30.8102    1.9816 C.3       7 UNK         0.0276 
     46 CB         26.7780   31.5413    1.4838 C.3       7 UNK        -0.1927 
     47 C          28.8952   31.6967    2.9200 C.2       7 UNK         0.5013 
     48 O          28.3402   32.5214    3.6478 O.2       7 UNK        -0.5193 
     49 N          30.2246   31.5247    2.8841 N.am      8 UNK        -0.4253 
     50 CA         31.1961   32.3857    3.5635 C.3       8 UNK         0.0242 
     51 CB         32.5557   32.2602    2.8549 C.3       8 UNK        -0.2000 
     52 C          31.3499   32.1009    5.0655 C.2       8 UNK         0.4948 
     53 O          31.8483   32.9687    5.7836 O.2       8 UNK        -0.5275 
     54 N          30.9755   30.8908    5.5092 N.am      9 UNK        -0.4246 
     55 CA         31.0676   30.3343    6.8712 C.3       9 UNK         0.0261 
     56 CB         30.2309   31.1500    7.8755 C.3       9 UNK        -0.1959 
     57 C          32.5054   30.1253    7.3875 C.2       9 UNK         0.5033 
     58 O          32.7918   29.0705    7.9554 O.2       9 UNK        -0.5390 
     59 N          33.3978   31.0940    7.1402 N.am      10 UNK        -0.4215 
     60 CA         34.8349   31.0627    7.4450 C.3       10 UNK         0.0240 
     61 CB         35.4493   32.4267    7.0914 C.3       10 UNK        -0.1982 
     62 C          35.6034   29.9268    6.7404 C.2       10 UNK         0.4970 
     63 O          36.6774   29.5433    7.2050 O.2       10 UNK        -0.4916 
     64 N          35.0248   29.3970    5.6567 N.am      11 UNK        -0.4279 
     65 CA         35.4062   28.1475    4.9874 C.3       11 UNK         0.1003 
     66 C          35.2904   26.8662    5.8675 C.2       11 UNK         0.5709 
     67 N          34.5524   26.8729    6.9730 N.am      11 UNK        -0.7358 
     68 O          35.8919   25.8462    5.5405 O.2       11 UNK        -0.4999 
     69 C69        34.6536   27.9847    3.6349 C.3       12 UNK        -0.0954 
     70 S70        32.8622   28.3520    3.7209 S.3       12 UNK        -0.2268 
     71 C71        32.1534   26.7101    4.0677 C.3       12 UNK         0.0203 
     72 H72        29.0651   20.9504   -2.1670 H         1 UNK         0.0888 
     73 H73        29.0763   22.6333   -1.6540 H         1 UNK         0.0888 
     74 H74        30.0478   21.4271   -0.7932 H         1 UNK         0.0888 
     75 H75        27.0294   21.7334    1.3994 H         1 UNK         0.3017 
     76 H76        29.5345   23.1441    0.7453 H         1 UNK         0.0873 
     77 H77        30.0613   22.7054    3.3352 H         1 UNK         0.0745 
     78 H78        28.9901   21.3532    3.1715 H         1 UNK         0.0745 
     79 H79        33.3593   21.5741    1.8156 H         1 UNK         0.0705 
     80 H80        32.7097   21.8009    3.4202 H         1 UNK         0.0705 
     81 H81        32.5685   24.0390    4.1335 H         1 UNK         0.1334 
     82 H82        31.7073   27.2170    1.3902 H         1 UNK         0.1417 
     83 H83        32.1086   23.1984   -0.0446 H         1 UNK         0.1562 
     84 H84        32.0174   25.1397   -1.6331 H         1 UNK         0.0748 
     85 H85        31.7481   26.7623   -1.0277 H         1 UNK         0.0748 
     86 H86        29.0058   25.3583   -3.3135 H         1 UNK         0.0940 
     87 H87        30.1708   26.6272   -3.1282 H         1 UNK         0.0940 
     88 H88        27.7463   27.3150   -3.6387 H         1 UNK         0.0703 
     89 H89        27.0655   26.9637   -0.8003 H         1 UNK         0.3081 
     90 H90        23.9614   25.6654   -1.5478 H         1 UNK         0.0719 
     91 H91        24.9862   23.4265   -1.9644 H         1 UNK         0.0809 
     92 H92        26.1126   23.6814   -0.6400 H         1 UNK         0.0809 
     93 H93        24.3857   23.5331   -0.3175 H         1 UNK         0.0809 
     94 H94        25.5693   25.5370    0.8614 H         1 UNK         0.2990 
     95 H95        25.3876   28.8924    1.7384 H         1 UNK         0.0690 
     96 H96        24.0445   28.2891    3.7301 H         1 UNK         0.0788 
     97 H97        23.4987   26.8039    2.9485 H         1 UNK         0.0788 
     98 H98        23.0096   28.3696    2.3154 H         1 UNK         0.0788 
     99 H99        25.9589   26.7030    3.4020 H         1 UNK         0.2993 
    100 H100       29.3273   26.9453    2.9625 H         1 UNK         0.0949 
    101 H101       28.8014   25.6917    5.0218 H         1 UNK         0.0767 
    102 H102       27.7207   27.0628    4.8764 H         1 UNK         0.0767 
    103 H103       27.1415   25.4383    4.5074 H         1 UNK         0.0767 
    104 H104       29.8621   24.9631    2.1636 H         1 UNK         0.3013 
    105 H105       30.0748   27.9500   -1.1674 H         1 UNK         0.3121 
    106 H106       30.2508   30.6619   -2.0728 H         1 UNK         0.0774 
    107 H107       32.1545   30.7995   -0.4774 H         1 UNK         0.0815 
    108 H108       31.6948   29.2681    0.2467 H         1 UNK         0.0815 
    109 H109       32.2481   29.3289   -1.4280 H         1 UNK         0.0815 
    110 H110       28.7420   29.2252    0.7692 H         1 UNK         0.2987 
    111 H111       27.7159   29.9666    2.5898 H         1 UNK         0.0949 
    112 H112       27.0265   32.4718    0.9724 H         1 UNK         0.0806 
    113 H113       26.2070   30.9249    0.7897 H         1 UNK         0.0806 
    114 H114       26.1174   31.7933    2.3143 H         1 UNK         0.0806 
    115 H115       30.5928   30.8280    2.2539 H         1 UNK         0.3010 
    116 H116       30.8614   33.4211    3.4671 H         1 UNK         0.0829 
    117 H117       32.4825   32.5477    1.8057 H         1 UNK         0.0813 
    118 H118       33.2989   32.9130    3.3153 H         1 UNK         0.0813 
    119 H119       32.9461   31.2434    2.8970 H         1 UNK         0.0813 
    120 H120       30.6172   30.2517    4.8139 H         1 UNK         0.3038 
    121 H121       30.6188   29.3414    6.8079 H         1 UNK         0.0769 
    122 H122       30.2226   30.6689    8.8545 H         1 UNK         0.0811 
    123 H123       29.1948   31.2370    7.5484 H         1 UNK         0.0811 
    124 H124       30.6235   32.1576    8.0149 H         1 UNK         0.0811 
    125 H125       33.0386   31.9290    6.6786 H         1 UNK         0.3204 
    126 H126       34.9387   30.9037    8.5201 H         1 UNK         0.0748 
    127 H127       34.9748   33.2327    7.6519 H         1 UNK         0.0771 
    128 H128       36.5137   32.4513    7.3297 H         1 UNK         0.0771 
    129 H129       35.3463   32.6515    6.0289 H         1 UNK         0.0771 
    130 H130       34.1433   29.7831    5.3554 H         1 UNK         0.2980 
    131 H131       36.4685   28.2376    4.7537 H         1 UNK         0.0545 
    132 H132       34.5005   26.0361    7.5308 H         1 UNK         0.3459 
    133 H133       34.0313   27.6967    7.2554 H         1 UNK         0.3459 
    134 H134       35.0793   28.6815    2.9116 H         1 UNK         0.0616 
    135 H135       34.8091   26.9941    3.2030 H         1 UNK         0.0616 
    136 H136       32.6660   26.2773    4.9260 H         1 UNK         0.0634 
    137 H137       31.1195   26.8445    4.3821 H         1 UNK         0.0634 
@<TRIPOS>BOND
     1    1    2 1    
     2    1   72 1    
     3    1   73 1    
     4    1   74 1    
     5    2    3 2    
     6    2    4 am   BACKBONE|DICT|INTERRES
     7    4    5 1    
     8    4   75 1    
     9    5    6 1    
    10    5   35 1    
    11    5   76 1    
    12    6    7 1    
    13    6   77 1    
    14    6   78 1    
    15    7    8 1    
    16    8    9 1    
    17    8   79 1    
    18    8   80 1    
    19    9   10 ar   
    20    9   14 ar   
    21   10   11 ar   
    22   10   81 1    
    23   11   12 ar   
    24   11   71 1    
    25   12   13 ar   
    26   12   82 1    
    27   13   14 ar   
    28   13   15 1    
    29   14   83 1    
    30   15   16 1    
    31   15   84 1    
    32   15   85 1    
    33   16   17 1    
    34   17   18 1    
    35   17   86 1    
    36   17   87 1    
    37   18   19 1    
    38   18   37 1    
    39   18   88 1    
    40   19   20 am   BACKBONE|DICT|INTERRES
    41   19   89 1    
    42   20   21 2    
    43   20   22 1    
    44   22   23 1    
    45   22   24 1    
    46   22   90 1    
    47   23   91 1    
    48   23   92 1    
    49   23   93 1    
    50   24   25 am   BACKBONE|DICT|INTERRES
    51   24   94 1    
    52   25   26 2    
    53   25   27 1    
    54   27   28 1    
    55   27   29 1    
    56   27   95 1    
    57   28   96 1    
    58   28   97 1    
    59   28   98 1    
    60   29   30 am   BACKBONE|DICT|INTERRES
    61   29   99 1    
    62   30   31 2    
    63   30   32 1    
    64   32   33 1    
    65   32   34 1    
    66   32  100 1    
    67   33  101 1    
    68   33  102 1    
    69   33  103 1    
    70   34   35 am   BACKBONE|DICT|INTERRES
    71   34  104 1    
    72   35   36 2    
    73   37   38 2    
    74   37   39 am   BACKBONE|DICT|INTERRES
    75   39   40 1    
    76   39  105 1    
    77   40   41 1    
    78   40   42 1    
    79   40  106 1    
    80   41  107 1    
    81   41  108 1    
    82   41  109 1    
    83   42   43 2    
    84   42   44 am   BACKBONE|DICT|INTERRES
    85   44   45 1    
    86   44  110 1    
    87   45   46 1    
    88   45   47 1    
    89   45  111 1    
    90   46  112 1    
    91   46  113 1    
    92   46  114 1    
    93   47   48 2    
    94   47   49 am   BACKBONE|DICT|INTERRES
    95   49   50 1    
    96   49  115 1    
    97   50   51 1    
    98   50   52 1    
    99   50  116 1    
   100   51  117 1    
   101   51  118 1    
   102   51  119 1    
   103   52   53 2    
   104   52   54 am   BACKBONE|DICT|INTERRES
   105   54   55 1    
   106   54  120 1    
   107   55   56 1    
   108   55   57 1    
   109   55  121 1    
   110   56  122 1    
   111   56  123 1    
   112   56  124 1    
   113   57   58 2    
   114   57   59 am   BACKBONE|DICT|INTERRES
   115   59   60 1    
   116   59  125 1    
   117   60   61 1    
   118   60   62 1    
   119   60  126 1    
   120   61  127 1    
   121   61  128 1    
   122   61  129 1    
   123   62   63 2    
   124   62   64 am   BACKBONE|DICT|INTERRES
   125   64   65 1    
   126   64  130 1    
   127   65   66 1    
   128   65   69 1    
   129   65  131 1    
   130   66   67 am   BACKBONE|DICT|INTERRES
   131   66   68 2    
   132   67  132 1    
   133   67  133 1    
   134   69   70 1    
   135   69  134 1    
   136   69  135 1    
   137   70   71 1    
   138   71  136 1    
   139   71  137 1    
@<TRIPOS>SUBSTRUCTURE
     1 UNK         1 GROUP             0       ****    0 ROOT    
