@<TRIPOS>MOLECULE
3R136
137   139    1
SMALL
USER_CHARGES


@<TRIPOS>ATOM
      1 CA         25.9472   22.2355    1.6132 C.3       0 UNK        -0.1979 
      2 C          26.6531   21.8078    0.3359 C.2       0 UNK         0.4864 
      3 O          26.1643   20.9189   -0.3628 O.2       0 UNK        -0.5359 
      4 N          27.8003   22.4268    0.0282 N.am      1 UNK        -0.4318 
      5 CA         28.5991   22.1563   -1.1730 C.3       1 UNK         0.0824 
      6 C6         30.0670   22.6198   -1.0043 C.3       12 UNK        -0.0944 
      7 S7         30.2594   24.3879   -0.5720 S.3       12 UNK        -0.2672 
      8 C8         31.8841   24.3626    0.2520 C.3       12 UNK         0.0333 
      9 C9         31.7742   24.5010    1.7655 C.ar      12 UNK        -0.0807 
     10 C10        32.4168   25.5613    2.4127 C.ar      12 UNK        -0.0894 
     11 C11        32.3618   25.6884    3.8035 C.ar      12 UNK        -0.0804 
     12 C12        31.6403   24.7532    4.5478 C.ar      12 UNK        -0.0824 
     13 C13        30.9632   23.7076    3.9134 C.ar      12 UNK        -0.0762 
     14 C14        31.0515   23.5726    2.5241 C.ar      12 UNK        -0.0782 
     15 C15        30.1082   22.7495    4.7317 C.3       12 UNK         0.0230 
     16 S16        28.3319   23.1589    4.6278 S.3       12 UNK        -0.2608 
     17 C17        28.2983   24.9032    5.1767 C.3       12 UNK        -0.0989 
     18 CA         28.1986   25.8675    3.9610 C.3       5 UNK         0.0716 
     19 N          26.9317   25.7422    3.2266 N.am      5 UNK        -0.4135 
     20 C          25.6993   26.0357    3.6625 C.2       4 UNK         0.5031 
     21 O          25.4562   26.4697    4.7895 O.2       4 UNK        -0.5229 
     22 CA         24.5567   25.8518    2.6397 C.3       4 UNK         0.0329 
     23 CB         23.1810   26.2392    3.2141 C.3       4 UNK        -0.2001 
     24 N          24.7779   26.6015    1.3959 N.am      4 UNK        -0.4303 
     25 C          25.6566   26.2805    0.4384 C.2       3 UNK         0.5044 
     26 O          26.4246   25.3141    0.5113 O.2       3 UNK        -0.5152 
     27 CA         25.7361   27.2227   -0.7741 C.3       3 UNK         0.0319 
     28 CB         26.6105   28.4443   -0.4456 C.3       3 UNK        -0.2001 
     29 N          26.3325   26.5015   -1.8954 N.am      3 UNK        -0.4354 
     30 C          25.6709   25.6205   -2.6577 C.2       2 UNK         0.4964 
     31 O          24.4443   25.5371   -2.7242 O.2       2 UNK        -0.5047 
     32 CA         26.5464   24.5873   -3.3654 C.3       2 UNK         0.0288 
     33 CB         27.5145   25.2407   -4.3739 C.3       2 UNK        -0.2113 
     34 N          27.2619   23.8628   -2.3170 N.am      2 UNK        -0.4145 
     35 C          27.9619   22.7322   -2.4563 C.2       1 UNK         0.5006 
     36 O          28.1110   22.1415   -3.5278 O.2       1 UNK        -0.5103 
     37 C          28.5686   27.3348    4.2896 C.2       5 UNK         0.5055 
     38 O          29.3909   27.5831    5.1723 O.2       5 UNK        -0.5220 
     39 N          27.9878   28.2809    3.5373 N.am      6 UNK        -0.4450 
     40 CA         28.2601   29.7181    3.6078 C.3       6 UNK         0.0367 
     41 CB         26.9338   30.4794    3.4443 C.3       6 UNK        -0.1929 
     42 C          29.2808   30.1751    2.5487 C.2       6 UNK         0.5070 
     43 O          29.6154   31.3606    2.5142 O.2       6 UNK        -0.5237 
     44 N          29.7595   29.2503    1.7032 N.am      7 UNK        -0.4739 
     45 CA         30.7339   29.4975    0.6369 C.3       7 UNK         0.0276 
     46 CB         30.9628   28.1952   -0.1457 C.3       7 UNK        -0.1927 
     47 C          32.0663   30.0553    1.1685 C.2       7 UNK         0.5013 
     48 O          32.4889   29.6893    2.2677 O.2       7 UNK        -0.5193 
     49 N          32.6851   30.9485    0.3822 N.am      8 UNK        -0.4253 
     50 CA         33.9149   31.6900    0.6995 C.3       8 UNK         0.0242 
     51 CB         35.1321   30.7389    0.7125 C.3       8 UNK        -0.2000 
     52 C          33.7948   32.5325    1.9885 C.2       8 UNK         0.4948 
     53 O          34.7494   32.6009    2.7632 O.2       8 UNK        -0.5275 
     54 N          32.6098   33.1331    2.1953 N.am      9 UNK        -0.4246 
     55 CA         32.1842   33.8822    3.3868 C.3       9 UNK         0.0261 
     56 CB         32.9875   35.1928    3.5335 C.3       9 UNK        -0.1959 
     57 C          32.2040   33.0099    4.6587 C.2       9 UNK         0.5033 
     58 O          32.7273   33.4316    5.6917 O.2       9 UNK        -0.5390 
     59 N          31.6347   31.8016    4.5361 N.am      10 UNK        -0.4215 
     60 CA         31.6222   30.7076    5.5144 C.3       10 UNK         0.0240 
     61 CB         30.7667   31.0753    6.7453 C.3       10 UNK        -0.1982 
     62 C          33.0392   30.2178    5.8736 C.2       10 UNK         0.4970 
     63 O          33.3245   29.9711    7.0474 O.2       10 UNK        -0.4916 
     64 N          33.8823   30.0664    4.8420 N.am      11 UNK        -0.4279 
     65 CA         35.2867   29.6293    4.8988 C.3       11 UNK         0.1003 
     66 C          36.2314   30.5947    5.6811 C.2       11 UNK         0.5709 
     67 N          37.5196   30.2820    5.7502 N.am      11 UNK        -0.7358 
     68 O          35.8390   31.6385    6.1982 O.2       11 UNK        -0.4999 
     69 C69        35.4195   28.1433    5.3523 C.3       12 UNK        -0.0954 
     70 S70        34.8161   26.9617    4.1016 S.3       12 UNK        -0.2268 
     71 C71        33.0429   26.8555    4.5034 C.3       12 UNK         0.0203 
     72 H72        25.8420   21.3866    2.2880 H         1 UNK         0.0888 
     73 H73        26.4958   23.0168    2.1374 H         1 UNK         0.0888 
     74 H74        24.9528   22.6138    1.3794 H         1 UNK         0.0888 
     75 H75        28.1404   23.1745    0.6168 H         1 UNK         0.3017 
     76 H76        28.6231   21.0726   -1.3092 H         1 UNK         0.0873 
     77 H77        30.6397   22.4206   -1.9123 H         1 UNK         0.0745 
     78 H78        30.5357   22.0140   -0.2277 H         1 UNK         0.0745 
     79 H79        32.4807   25.1764   -0.1628 H         1 UNK         0.0705 
     80 H80        32.4240   23.4462    0.0108 H         1 UNK         0.0705 
     81 H81        32.9742   26.2894    1.8391 H         1 UNK         0.1334 
     82 H82        31.5782   24.8587    5.6222 H         1 UNK         0.1417 
     83 H83        30.5365   22.7584    2.0341 H         1 UNK         0.1562 
     84 H84        30.4165   22.7560    5.7784 H         1 UNK         0.0748 
     85 H85        30.2586   21.7290    4.3765 H         1 UNK         0.0748 
     86 H86        29.1844   25.1002    5.7800 H         1 UNK         0.0940 
     87 H87        27.4540   25.0439    5.8527 H         1 UNK         0.0940 
     88 H88        28.9651   25.5682    3.2454 H         1 UNK         0.0703 
     89 H89        27.0046   25.4244    2.2626 H         1 UNK         0.3081 
     90 H90        24.5198   24.7886    2.3966 H         1 UNK         0.0719 
     91 H91        23.1370   27.2960    3.4807 H         1 UNK         0.0809 
     92 H92        22.3816   26.0387    2.5005 H         1 UNK         0.0809 
     93 H93        22.9572   25.6660    4.1150 H         1 UNK         0.0809 
     94 H94        24.2100   27.4275    1.2695 H         1 UNK         0.2990 
     95 H95        24.7312   27.5562   -1.0422 H         1 UNK         0.0690 
     96 H96        26.7183   29.0975   -1.3119 H         1 UNK         0.0788 
     97 H97        27.6102   28.1534   -0.1216 H         1 UNK         0.0788 
     98 H98        26.1678   29.0414    0.3519 H         1 UNK         0.0788 
     99 H99        27.3416   26.4676   -1.9070 H         1 UNK         0.2993 
    100 H100       25.8935   23.8894   -3.8939 H         1 UNK         0.0949 
    101 H101       28.0473   24.4890   -4.9562 H         1 UNK         0.0767 
    102 H102       26.9734   25.8693   -5.0824 H         1 UNK         0.0767 
    103 H103       28.2605   25.8657   -3.8818 H         1 UNK         0.0767 
    104 H104       27.1548   24.2379   -1.3805 H         1 UNK         0.3013 
    105 H105       27.3122   27.9858    2.8489 H         1 UNK         0.3121 
    106 H106       28.6730   29.9678    4.5870 H         1 UNK         0.0774 
    107 H107       27.0847   31.5545    3.5519 H         1 UNK         0.0815 
    108 H108       26.4856   30.3111    2.4648 H         1 UNK         0.0815 
    109 H109       26.2091   30.1796    4.2017 H         1 UNK         0.0815 
    110 H110       29.4794   28.2922    1.8410 H         1 UNK         0.2987 
    111 H111       30.2950   30.2360   -0.0375 H         1 UNK         0.0949 
    112 H112       31.6956   28.3354   -0.9413 H         1 UNK         0.0806 
    113 H113       31.3328   27.4011    0.5010 H         1 UNK         0.0806 
    114 H114       30.0443   27.8416   -0.6139 H         1 UNK         0.0806 
    115 H115       32.2584   31.1790   -0.5050 H         1 UNK         0.3010 
    116 H116       34.0654   32.4042   -0.1115 H         1 UNK         0.0829 
    117 H117       35.2181   30.1941   -0.2274 H         1 UNK         0.0813 
    118 H118       36.0621   31.2918    0.8505 H         1 UNK         0.0813 
    119 H119       35.0666   30.0062    1.5170 H         1 UNK         0.0813 
    120 H120       31.8909   32.9911    1.4988 H         1 UNK         0.3038 
    121 H121       31.1402   34.1541    3.2221 H         1 UNK         0.0769 
    122 H122       32.5934   35.8016    4.3481 H         1 UNK         0.0811 
    123 H123       32.9363   35.7940    2.6260 H         1 UNK         0.0811 
    124 H124       34.0388   35.0024    3.7518 H         1 UNK         0.0811 
    125 H125       31.1901   31.5885    3.6468 H         1 UNK         0.3204 
    126 H126       31.1379   29.8645    5.0200 H         1 UNK         0.0748 
    127 H127       30.6432   30.2142    7.4032 H         1 UNK         0.0771 
    128 H128       31.2237   31.8719    7.3330 H         1 UNK         0.0771 
    129 H129       29.7696   31.4035    6.4523 H         1 UNK         0.0771 
    130 H130       33.5262   30.2480    3.9094 H         1 UNK         0.2980 
    131 H131       35.6347   29.6969    3.8680 H         1 UNK         0.0545 
    132 H132       38.1457   30.9020    6.2398 H         1 UNK         0.3459 
    133 H133       37.8797   29.4469    5.3159 H         1 UNK         0.3459 
    134 H134       36.4628   27.8768    5.5243 H         1 UNK         0.0616 
    135 H135       34.9159   27.9682    6.3036 H         1 UNK         0.0616 
    136 H136       32.5429   27.7731    4.1955 H         1 UNK         0.0634 
    137 H137       32.9235   26.7805    5.5852 H         1 UNK         0.0634 
@<TRIPOS>BOND
     1    1    2 1    
     2    1   72 1    
     3    1   73 1    
     4    1   74 1    
     5    2    3 2    
     6    2    4 am   BACKBONE|DICT|INTERRES
     7    4    5 1    
     8    4   75 1    
     9    5    6 1    
    10    5   35 1    
    11    5   76 1    
    12    6    7 1    
    13    6   77 1    
    14    6   78 1    
    15    7    8 1    
    16    8    9 1    
    17    8   79 1    
    18    8   80 1    
    19    9   10 ar   
    20    9   14 ar   
    21   10   11 ar   
    22   10   81 1    
    23   11   12 ar   
    24   11   71 1    
    25   12   13 ar   
    26   12   82 1    
    27   13   14 ar   
    28   13   15 1    
    29   14   83 1    
    30   15   16 1    
    31   15   84 1    
    32   15   85 1    
    33   16   17 1    
    34   17   18 1    
    35   17   86 1    
    36   17   87 1    
    37   18   19 1    
    38   18   37 1    
    39   18   88 1    
    40   19   20 am   BACKBONE|DICT|INTERRES
    41   19   89 1    
    42   20   21 2    
    43   20   22 1    
    44   22   23 1    
    45   22   24 1    
    46   22   90 1    
    47   23   91 1    
    48   23   92 1    
    49   23   93 1    
    50   24   25 am   BACKBONE|DICT|INTERRES
    51   24   94 1    
    52   25   26 2    
    53   25   27 1    
    54   27   28 1    
    55   27   29 1    
    56   27   95 1    
    57   28   96 1    
    58   28   97 1    
    59   28   98 1    
    60   29   30 am   BACKBONE|DICT|INTERRES
    61   29   99 1    
    62   30   31 2    
    63   30   32 1    
    64   32   33 1    
    65   32   34 1    
    66   32  100 1    
    67   33  101 1    
    68   33  102 1    
    69   33  103 1    
    70   34   35 am   BACKBONE|DICT|INTERRES
    71   34  104 1    
    72   35   36 2    
    73   37   38 2    
    74   37   39 am   BACKBONE|DICT|INTERRES
    75   39   40 1    
    76   39  105 1    
    77   40   41 1    
    78   40   42 1    
    79   40  106 1    
    80   41  107 1    
    81   41  108 1    
    82   41  109 1    
    83   42   43 2    
    84   42   44 am   BACKBONE|DICT|INTERRES
    85   44   45 1    
    86   44  110 1    
    87   45   46 1    
    88   45   47 1    
    89   45  111 1    
    90   46  112 1    
    91   46  113 1    
    92   46  114 1    
    93   47   48 2    
    94   47   49 am   BACKBONE|DICT|INTERRES
    95   49   50 1    
    96   49  115 1    
    97   50   51 1    
    98   50   52 1    
    99   50  116 1    
   100   51  117 1    
   101   51  118 1    
   102   51  119 1    
   103   52   53 2    
   104   52   54 am   BACKBONE|DICT|INTERRES
   105   54   55 1    
   106   54  120 1    
   107   55   56 1    
   108   55   57 1    
   109   55  121 1    
   110   56  122 1    
   111   56  123 1    
   112   56  124 1    
   113   57   58 2    
   114   57   59 am   BACKBONE|DICT|INTERRES
   115   59   60 1    
   116   59  125 1    
   117   60   61 1    
   118   60   62 1    
   119   60  126 1    
   120   61  127 1    
   121   61  128 1    
   122   61  129 1    
   123   62   63 2    
   124   62   64 am   BACKBONE|DICT|INTERRES
   125   64   65 1    
   126   64  130 1    
   127   65   66 1    
   128   65   69 1    
   129   65  131 1    
   130   66   67 am   BACKBONE|DICT|INTERRES
   131   66   68 2    
   132   67  132 1    
   133   67  133 1    
   134   69   70 1    
   135   69  134 1    
   136   69  135 1    
   137   70   71 1    
   138   71  136 1    
   139   71  137 1    
@<TRIPOS>SUBSTRUCTURE
     1 UNK         1 GROUP             0       ****    0 ROOT    
