@<TRIPOS>MOLECULE
3R136
137   139    1
SMALL
USER_CHARGES


@<TRIPOS>ATOM
      1 CA         27.7094   21.7597    1.4908 C.3       0 UNK        -0.1979 
      2 C          27.8825   22.6863    0.2974 C.2       0 UNK         0.4864 
      3 O          27.0208   22.7128   -0.5831 O.2       0 UNK        -0.5359 
      4 N          28.9784   23.4581    0.2616 N.am      1 UNK        -0.4318 
      5 CA         29.2616   24.4664   -0.7649 C.3       1 UNK         0.0824 
      6 C6         30.6866   25.0470   -0.6260 C.3       12 UNK        -0.0944 
      7 S7         31.9775   23.9370   -1.2889 S.3       12 UNK        -0.2672 
      8 C8         32.2320   22.6873    0.0192 C.3       12 UNK         0.0333 
      9 C9         32.3612   23.2721    1.4206 C.ar      12 UNK        -0.0807 
     10 C10        33.2700   24.3029    1.6865 C.ar      12 UNK        -0.0894 
     11 C11        33.3646   24.8472    2.9697 C.ar      12 UNK        -0.0804 
     12 C12        32.5604   24.3437    3.9934 C.ar      12 UNK        -0.0824 
     13 C13        31.6478   23.3163    3.7414 C.ar      12 UNK        -0.0762 
     14 C14        31.5648   22.7731    2.4571 C.ar      12 UNK        -0.0782 
     15 C15        30.7479   22.8018    4.8567 C.3       12 UNK         0.0230 
     16 S16        29.0567   23.4764    4.7427 S.3       12 UNK        -0.2608 
     17 C17        29.3512   25.2729    4.8722 C.3       12 UNK        -0.0989 
     18 CA         28.9751   25.9983    3.5502 C.3       5 UNK         0.0716 
     19 N          27.5265   26.0873    3.3025 N.am      5 UNK        -0.4135 
     20 C          26.6223   26.7079    4.0792 C.2       4 UNK         0.5031 
     21 O          26.8748   27.1768    5.1897 O.2       4 UNK        -0.5229 
     22 CA         25.1923   26.8874    3.5361 C.3       4 UNK         0.0329 
     23 CB         24.8946   28.3787    3.3005 C.3       4 UNK        -0.2001 
     24 N          24.9097   26.1673    2.2961 N.am      4 UNK        -0.4303 
     25 C          24.6545   24.8606    2.1788 C.2       3 UNK         0.5044 
     26 O          24.6927   24.0710    3.1219 O.2       3 UNK        -0.5152 
     27 CA         24.2994   24.3399    0.7720 C.3       3 UNK         0.0319 
     28 CB         22.7873   24.4591    0.5009 C.3       3 UNK        -0.2001 
     29 N          25.0946   24.9288   -0.3174 N.am      3 UNK        -0.4354 
     30 C          25.1251   26.1968   -0.7645 C.2       2 UNK         0.4964 
     31 O          24.3951   27.0887   -0.3296 O.2       2 UNK        -0.5047 
     32 CA         26.1847   26.5354   -1.8361 C.3       2 UNK         0.0288 
     33 CB         26.5674   28.0315   -1.8449 C.3       2 UNK        -0.2113 
     34 N          27.3853   25.6945   -1.7397 N.am      2 UNK        -0.4145 
     35 C          28.2061   25.5830   -0.6840 C.2       1 UNK         0.5006 
     36 O          28.1263   26.2629    0.3437 O.2       1 UNK        -0.5103 
     37 C          29.5936   27.4034    3.4070 C.2       5 UNK         0.5055 
     38 O          30.1614   27.9515    4.3557 O.2       5 UNK        -0.5220 
     39 N          29.4056   27.9750    2.2117 N.am      6 UNK        -0.4450 
     40 CA         29.6664   29.3728    1.8886 C.3       6 UNK         0.0367 
     41 CB         28.3152   30.1017    1.7613 C.3       6 UNK        -0.1929 
     42 C          30.5371   29.5082    0.6302 C.2       6 UNK         0.5070 
     43 O          30.2741   30.3778   -0.2013 O.2       6 UNK        -0.5237 
     44 N          31.5867   28.6782    0.5162 N.am      7 UNK        -0.4739 
     45 CA         32.5997   28.7851   -0.5474 C.3       7 UNK         0.0276 
     46 CB         33.5424   27.5709   -0.5172 C.3       7 UNK        -0.1927 
     47 C          33.4167   30.0879   -0.4572 C.2       7 UNK         0.5013 
     48 O          33.7938   30.6423   -1.4899 O.2       7 UNK        -0.5193 
     49 N          33.6357   30.5622    0.7753 N.am      8 UNK        -0.4253 
     50 CA         34.1975   31.8700    1.0968 C.3       8 UNK         0.0242 
     51 CB         35.6354   31.7095    1.6253 C.3       8 UNK        -0.2000 
     52 C          33.2530   32.5531    2.0948 C.2       8 UNK         0.4948 
     53 O          33.6086   32.7424    3.2592 O.2       8 UNK        -0.5275 
     54 N          32.0352   32.8587    1.6231 N.am      9 UNK        -0.4246 
     55 CA         30.9277   33.5617    2.2917 C.3       9 UNK         0.0261 
     56 CB         31.3349   34.9913    2.6998 C.3       9 UNK        -0.1959 
     57 C          30.2801   32.8184    3.4753 C.2       9 UNK         0.5033 
     58 O          29.0523   32.7910    3.5561 O.2       9 UNK        -0.5390 
     59 N          31.0925   32.2327    4.3587 N.am      10 UNK        -0.4215 
     60 CA         30.6839   31.4694    5.5372 C.3       10 UNK         0.0240 
     61 CB         30.0446   32.3921    6.5995 C.3       10 UNK        -0.1982 
     62 C          31.9121   30.7210    6.0691 C.2       10 UNK         0.4970 
     63 O          32.3932   31.0218    7.1635 O.2       10 UNK        -0.4916 
     64 N          32.4322   29.7952    5.2570 N.am      11 UNK        -0.4279 
     65 CA         33.6018   28.9700    5.5901 C.3       11 UNK         0.1003 
     66 C          33.2750   27.7395    6.4842 C.2       11 UNK         0.5709 
     67 N          32.0265   27.2935    6.5622 N.am      11 UNK        -0.7358 
     68 O          34.1673   27.1952    7.1297 O.2       11 UNK        -0.4999 
     69 C69        34.4073   28.5918    4.3218 C.3       12 UNK        -0.0954 
     70 S70        33.4603   27.5872    3.1309 S.3       12 UNK        -0.2268 
     71 C71        34.3189   25.9899    3.2628 C.3       12 UNK         0.0203 
     72 H72        28.5225   21.8560    2.2079 H         1 UNK         0.0888 
     73 H73        26.7782   21.9891    2.0088 H         1 UNK         0.0888 
     74 H74        27.6691   20.7229    1.1584 H         1 UNK         0.0888 
     75 H75        29.6442   23.4163    1.0182 H         1 UNK         0.3017 
     76 H76        29.1793   23.9831   -1.7411 H         1 UNK         0.0873 
     77 H77        30.9049   25.3270    0.4056 H         1 UNK         0.0745 
     78 H78        30.7717   25.9723   -1.2001 H         1 UNK         0.0745 
     79 H79        31.4117   21.9697   -0.0286 H         1 UNK         0.0705 
     80 H80        33.1381   22.1251   -0.2095 H         1 UNK         0.0705 
     81 H81        33.8898   24.6920    0.8903 H         1 UNK         0.1334 
     82 H82        32.6360   24.7694    4.9849 H         1 UNK         0.1417 
     83 H83        30.8766   21.9609    2.2697 H         1 UNK         0.1562 
     84 H84        31.1665   23.0475    5.8340 H         1 UNK         0.0748 
     85 H85        30.6980   21.7128    4.8135 H         1 UNK         0.0748 
     86 H86        30.3951   25.4464    5.1253 H         1 UNK         0.0940 
     87 H87        28.7936   25.6612    5.7238 H         1 UNK         0.0940 
     88 H88        29.3953   25.4161    2.7283 H         1 UNK         0.0703 
     89 H89        27.2290   25.7953    2.3813 H         1 UNK         0.3081 
     90 H90        24.5101   26.5206    4.3059 H         1 UNK         0.0719 
     91 H91        25.0621   28.9638    4.2059 H         1 UNK         0.0809 
     92 H92        25.5306   28.7963    2.5191 H         1 UNK         0.0809 
     93 H93        23.8566   28.5340    3.0054 H         1 UNK         0.0809 
     94 H94        24.8181   26.7259    1.4509 H         1 UNK         0.2990 
     95 H95        24.5466   23.2770    0.7667 H         1 UNK         0.0690 
     96 H96        22.5237   24.0327   -0.4669 H         1 UNK         0.0788 
     97 H97        22.4477   25.4951    0.5152 H         1 UNK         0.0788 
     98 H98        22.2146   23.9222    1.2584 H         1 UNK         0.0788 
     99 H99        25.7726   24.2820   -0.7113 H         1 UNK         0.2993 
    100 H100       25.7215   26.3062   -2.7970 H         1 UNK         0.0949 
    101 H101       26.9750   28.3507   -0.8860 H         1 UNK         0.0767 
    102 H102       27.3111   28.2465   -2.6123 H         1 UNK         0.0767 
    103 H103       25.6991   28.6579   -2.0530 H         1 UNK         0.0767 
    104 H104       27.5306   25.0656   -2.5182 H         1 UNK         0.3013 
    105 H105       28.9457   27.4285    1.4832 H         1 UNK         0.3121 
    106 H106       30.2291   29.8479    2.6935 H         1 UNK         0.0774 
    107 H107       27.6833   29.6485    0.9978 H         1 UNK         0.0815 
    108 H108       27.7697   30.0825    2.7049 H         1 UNK         0.0815 
    109 H109       28.4493   31.1498    1.4924 H         1 UNK         0.0815 
    110 H110       31.7493   27.9921    1.2412 H         1 UNK         0.2987 
    111 H111       32.0746   28.7863   -1.5053 H         1 UNK         0.0949 
    112 H112       32.9944   26.6322   -0.5034 H         1 UNK         0.0806 
    113 H113       34.1798   27.5582   -1.4021 H         1 UNK         0.0806 
    114 H114       34.2029   27.5842    0.3491 H         1 UNK         0.0806 
    115 H115       33.2882   30.0231    1.5557 H         1 UNK         0.3010 
    116 H116       34.2330   32.5017    0.2063 H         1 UNK         0.0829 
    117 H117       35.6754   31.1116    2.5345 H         1 UNK         0.0813 
    118 H118       36.0733   32.6811    1.8570 H         1 UNK         0.0813 
    119 H119       36.2768   31.2329    0.8839 H         1 UNK         0.0813 
    120 H120       31.8357   32.5845    0.6695 H         1 UNK         0.3038 
    121 H121       30.1503   33.6542    1.5312 H         1 UNK         0.0769 
    122 H122       31.7009   35.5588    1.8443 H         1 UNK         0.0811 
    123 H123       32.1147   34.9934    3.4620 H         1 UNK         0.0811 
    124 H124       30.4829   35.5361    3.1088 H         1 UNK         0.0811 
    125 H125       32.0969   32.3264    4.2012 H         1 UNK         0.3204 
    126 H126       29.9474   30.7214    5.2354 H         1 UNK         0.0748 
    127 H127       30.7184   33.1997    6.8882 H         1 UNK         0.0771 
    128 H128       29.1196   32.8419    6.2395 H         1 UNK         0.0771 
    129 H129       29.7952   31.8333    7.5025 H         1 UNK         0.0771 
    130 H130       31.9274   29.5259    4.4249 H         1 UNK         0.2980 
    131 H131       34.2729   29.5870    6.1909 H         1 UNK         0.0545 
    132 H132       31.8165   26.5169    7.1667 H         1 UNK         0.3459 
    133 H133       31.3080   27.6874    5.9638 H         1 UNK         0.3459 
    134 H134       35.3350   28.0851    4.5929 H         1 UNK         0.0616 
    135 H135       34.7158   29.5023    3.8103 H         1 UNK         0.0616 
    136 H136       34.7297   25.8638    4.2657 H         1 UNK         0.0634 
    137 H137       35.1657   25.9764    2.5751 H         1 UNK         0.0634 
@<TRIPOS>BOND
     1    1    2 1    
     2    1   72 1    
     3    1   73 1    
     4    1   74 1    
     5    2    3 2    
     6    2    4 am   BACKBONE|DICT|INTERRES
     7    4    5 1    
     8    4   75 1    
     9    5    6 1    
    10    5   35 1    
    11    5   76 1    
    12    6    7 1    
    13    6   77 1    
    14    6   78 1    
    15    7    8 1    
    16    8    9 1    
    17    8   79 1    
    18    8   80 1    
    19    9   10 ar   
    20    9   14 ar   
    21   10   11 ar   
    22   10   81 1    
    23   11   12 ar   
    24   11   71 1    
    25   12   13 ar   
    26   12   82 1    
    27   13   14 ar   
    28   13   15 1    
    29   14   83 1    
    30   15   16 1    
    31   15   84 1    
    32   15   85 1    
    33   16   17 1    
    34   17   18 1    
    35   17   86 1    
    36   17   87 1    
    37   18   19 1    
    38   18   37 1    
    39   18   88 1    
    40   19   20 am   BACKBONE|DICT|INTERRES
    41   19   89 1    
    42   20   21 2    
    43   20   22 1    
    44   22   23 1    
    45   22   24 1    
    46   22   90 1    
    47   23   91 1    
    48   23   92 1    
    49   23   93 1    
    50   24   25 am   BACKBONE|DICT|INTERRES
    51   24   94 1    
    52   25   26 2    
    53   25   27 1    
    54   27   28 1    
    55   27   29 1    
    56   27   95 1    
    57   28   96 1    
    58   28   97 1    
    59   28   98 1    
    60   29   30 am   BACKBONE|DICT|INTERRES
    61   29   99 1    
    62   30   31 2    
    63   30   32 1    
    64   32   33 1    
    65   32   34 1    
    66   32  100 1    
    67   33  101 1    
    68   33  102 1    
    69   33  103 1    
    70   34   35 am   BACKBONE|DICT|INTERRES
    71   34  104 1    
    72   35   36 2    
    73   37   38 2    
    74   37   39 am   BACKBONE|DICT|INTERRES
    75   39   40 1    
    76   39  105 1    
    77   40   41 1    
    78   40   42 1    
    79   40  106 1    
    80   41  107 1    
    81   41  108 1    
    82   41  109 1    
    83   42   43 2    
    84   42   44 am   BACKBONE|DICT|INTERRES
    85   44   45 1    
    86   44  110 1    
    87   45   46 1    
    88   45   47 1    
    89   45  111 1    
    90   46  112 1    
    91   46  113 1    
    92   46  114 1    
    93   47   48 2    
    94   47   49 am   BACKBONE|DICT|INTERRES
    95   49   50 1    
    96   49  115 1    
    97   50   51 1    
    98   50   52 1    
    99   50  116 1    
   100   51  117 1    
   101   51  118 1    
   102   51  119 1    
   103   52   53 2    
   104   52   54 am   BACKBONE|DICT|INTERRES
   105   54   55 1    
   106   54  120 1    
   107   55   56 1    
   108   55   57 1    
   109   55  121 1    
   110   56  122 1    
   111   56  123 1    
   112   56  124 1    
   113   57   58 2    
   114   57   59 am   BACKBONE|DICT|INTERRES
   115   59   60 1    
   116   59  125 1    
   117   60   61 1    
   118   60   62 1    
   119   60  126 1    
   120   61  127 1    
   121   61  128 1    
   122   61  129 1    
   123   62   63 2    
   124   62   64 am   BACKBONE|DICT|INTERRES
   125   64   65 1    
   126   64  130 1    
   127   65   66 1    
   128   65   69 1    
   129   65  131 1    
   130   66   67 am   BACKBONE|DICT|INTERRES
   131   66   68 2    
   132   67  132 1    
   133   67  133 1    
   134   69   70 1    
   135   69  134 1    
   136   69  135 1    
   137   70   71 1    
   138   71  136 1    
   139   71  137 1    
@<TRIPOS>SUBSTRUCTURE
     1 UNK         1 GROUP             0       ****    0 ROOT    
