@<TRIPOS>MOLECULE
3R136
137   139    1
SMALL
USER_CHARGES


@<TRIPOS>ATOM
      1 CA         30.2117   18.0601    1.4047 C.3       0 UNK        -0.1979 
      2 C          29.4505   19.3752    1.4783 C.2       0 UNK         0.4864 
      3 O          28.2212   19.3629    1.5647 O.2       0 UNK        -0.5359 
      4 N          30.1715   20.5048    1.4282 N.am      1 UNK        -0.4318 
      5 CA         29.6995   21.8979    1.5166 C.3       1 UNK         0.0824 
      6 C6         28.9541   22.2358    2.8365 C.3       12 UNK        -0.0944 
      7 S7         30.0241   22.0373    4.3002 S.3       12 UNK        -0.2672 
      8 C8         30.4733   23.7659    4.6577 C.3       12 UNK         0.0333 
      9 C9         31.3052   24.3787    3.5398 C.ar      12 UNK        -0.0807 
     10 C10        32.6600   24.0579    3.4181 C.ar      12 UNK        -0.0894 
     11 C11        33.4290   24.6039    2.3858 C.ar      12 UNK        -0.0804 
     12 C12        32.8314   25.4786    1.4732 C.ar      12 UNK        -0.0824 
     13 C13        31.4735   25.7958    1.5751 C.ar      12 UNK        -0.0762 
     14 C14        30.7163   25.2465    2.6143 C.ar      12 UNK        -0.0782 
     15 C15        30.8205   26.6903    0.5295 C.3       12 UNK         0.0230 
     16 S16        31.0529   28.4599    0.8933 S.3       12 UNK        -0.2608 
     17 C17        29.7505   28.7371    2.1361 C.3       12 UNK        -0.0989 
     18 CA         28.4814   29.4124    1.5318 C.3       5 UNK         0.0716 
     19 N          27.2534   28.6557    1.8043 N.am      5 UNK        -0.4135 
     20 C          26.7622   28.3372    3.0116 C.2       4 UNK         0.5031 
     21 O          27.2584   28.7117    4.0742 O.2       4 UNK        -0.5229 
     22 CA         25.5032   27.4477    3.0474 C.3       4 UNK         0.0329 
     23 CB         24.2690   28.2877    3.4174 C.3       4 UNK        -0.2001 
     24 N          25.2322   26.7232    1.7983 N.am      4 UNK        -0.4303 
     25 C          26.0026   25.7553    1.2821 C.2       3 UNK         0.5044 
     26 O          27.0478   25.3558    1.8020 O.2       3 UNK        -0.5152 
     27 CA         25.5358   25.1699   -0.0574 C.3       3 UNK         0.0319 
     28 CB         25.6805   26.1953   -1.1980 C.3       3 UNK        -0.2001 
     29 N          26.3343   23.9900   -0.3682 N.am      3 UNK        -0.4354 
     30 C          25.9359   22.9189   -1.0595 C.2       2 UNK         0.4964 
     31 O          24.8132   22.8126   -1.5549 O.2       2 UNK        -0.5047 
     32 CA         26.9340   21.7548   -1.2274 C.3       2 UNK         0.0288 
     33 CB         27.6649   21.8477   -2.5815 C.3       2 UNK        -0.2113 
     34 N          27.8853   21.5705   -0.1192 N.am      2 UNK        -0.4145 
     35 C          28.8845   22.3636    0.2926 C.2       1 UNK         0.5006 
     36 O          29.1648   23.4389   -0.2376 O.2       1 UNK        -0.5103 
     37 C          28.3583   30.9154    1.8787 C.2       5 UNK         0.5055 
     38 O          29.3720   31.5803    2.0926 O.2       5 UNK        -0.5220 
     39 N          27.1234   31.4423    1.8964 N.am      6 UNK        -0.4450 
     40 CA         26.7828   32.8204    2.2767 C.3       6 UNK         0.0367 
     41 CB         25.2523   32.9608    2.3232 C.3       6 UNK        -0.1929 
     42 C          27.3975   33.9169    1.3839 C.2       6 UNK         0.5070 
     43 O          27.4930   35.0640    1.8203 O.2       6 UNK        -0.5237 
     44 N          27.8122   33.5534    0.1628 N.am      7 UNK        -0.4739 
     45 CA         28.5365   34.4210   -0.7701 C.3       7 UNK         0.0276 
     46 CB         28.4573   33.8078   -2.1783 C.3       7 UNK        -0.1927 
     47 C          30.0068   34.6689   -0.3736 C.2       7 UNK         0.5013 
     48 O          30.6209   35.5862   -0.9207 O.2       7 UNK        -0.5193 
     49 N          30.5510   33.8571    0.5416 N.am      8 UNK        -0.4253 
     50 CA         31.9187   33.9418    1.0438 C.3       8 UNK         0.0242 
     51 CB         32.8400   33.0450    0.1876 C.3       8 UNK        -0.2000 
     52 C          31.8872   33.5942    2.5393 C.2       8 UNK         0.4948 
     53 O          31.2443   34.3139    3.3061 O.2       8 UNK        -0.5275 
     54 N          32.5529   32.5038    2.9297 N.am      9 UNK        -0.4246 
     55 CA         32.4953   31.9016    4.2550 C.3       9 UNK         0.0261 
     56 CB         33.5454   32.5418    5.1802 C.3       9 UNK        -0.1959 
     57 C          32.7433   30.4006    4.0842 C.2       9 UNK         0.5033 
     58 O          33.5325   30.0152    3.2167 O.2       9 UNK        -0.5390 
     59 N          32.0731   29.5883    4.9089 N.am      10 UNK        -0.4215 
     60 CA         32.2134   28.1316    4.9261 C.3       10 UNK         0.0240 
     61 CB         31.0067   27.5241    5.6608 C.3       10 UNK        -0.1982 
     62 C          33.5274   27.7066    5.5997 C.2       10 UNK         0.4970 
     63 O          34.0325   28.4246    6.4668 O.2       10 UNK        -0.4916 
     64 N          34.0355   26.5322    5.2118 N.am      11 UNK        -0.4279 
     65 CA         35.2856   25.9534    5.7335 C.3       11 UNK         0.1003 
     66 C          35.2172   25.4538    7.2074 C.2       11 UNK         0.5709 
     67 N          34.0437   25.3236    7.8155 N.am      11 UNK        -0.7358 
     68 O          36.2525   25.1829    7.8112 O.2       11 UNK        -0.4999 
     69 C69        35.8455   24.8412    4.8081 C.3       12 UNK        -0.0954 
     70 S70        36.0189   25.3635    3.0674 S.3       12 UNK        -0.2268 
     71 C71        34.8912   24.2132    2.2196 C.3       12 UNK         0.0203 
     72 H72        31.2879   18.2143    1.3279 H         1 UNK         0.0888 
     73 H73        30.0178   17.4656    2.2971 H         1 UNK         0.0888 
     74 H74        29.8879   17.4873    0.5362 H         1 UNK         0.0888 
     75 H75        31.1737   20.4195    1.3313 H         1 UNK         0.3017 
     76 H76        30.6101   22.4989    1.4963 H         1 UNK         0.0873 
     77 H77        28.0770   21.6002    2.9643 H         1 UNK         0.0745 
     78 H78        28.5711   23.2577    2.8177 H         1 UNK         0.0745 
     79 H79        31.0394   23.7961    5.5898 H         1 UNK         0.0705 
     80 H80        29.5673   24.3487    4.8322 H         1 UNK         0.0705 
     81 H81        33.1055   23.3629    4.1166 H         1 UNK         0.1334 
     82 H82        33.4189   25.8968    0.6671 H         1 UNK         0.1417 
     83 H83        29.6609   25.4727    2.6867 H         1 UNK         0.1562 
     84 H84        29.7556   26.4655    0.4415 H         1 UNK         0.0748 
     85 H85        31.2519   26.4757   -0.4492 H         1 UNK         0.0748 
     86 H86        30.1702   29.3204    2.9551 H         1 UNK         0.0940 
     87 H87        29.5051   27.7800    2.5930 H         1 UNK         0.0940 
     88 H88        28.5652   29.3936    0.4442 H         1 UNK         0.0703 
     89 H89        26.7664   28.3028    0.9937 H         1 UNK         0.3081 
     90 H90        25.6603   26.7057    3.8332 H         1 UNK         0.0719 
     91 H91        23.3860   27.6612    3.5456 H         1 UNK         0.0809 
     92 H92        24.4242   28.8181    4.3582 H         1 UNK         0.0809 
     93 H93        24.0437   29.0355    2.6560 H         1 UNK         0.0809 
     94 H94        24.3890   26.9814    1.3050 H         1 UNK         0.2990 
     95 H95        24.4876   24.8826    0.0493 H         1 UNK         0.0690 
     96 H96        25.0754   27.0843   -1.0169 H         1 UNK         0.0788 
     97 H97        25.3524   25.7758   -2.1493 H         1 UNK         0.0788 
     98 H98        26.7155   26.5188   -1.3178 H         1 UNK         0.0788 
     99 H99        27.2798   24.0028    0.0047 H         1 UNK         0.2993 
    100 H100       26.3335   20.8437   -1.2435 H         1 UNK         0.0949 
    101 H101       28.2710   22.7511   -2.6571 H         1 UNK         0.0767 
    102 H102       28.3188   20.9899   -2.7388 H         1 UNK         0.0767 
    103 H103       26.9521   21.8679   -3.4070 H         1 UNK         0.0767 
    104 H104       27.7581   20.7179    0.4253 H         1 UNK         0.3013 
    105 H105       26.3475   30.8311    1.6896 H         1 UNK         0.3121 
    106 H106       27.1705   32.9819    3.2848 H         1 UNK         0.0774 
    107 H107       24.8009   32.7828    1.3464 H         1 UNK         0.0815 
    108 H108       24.9614   33.9642    2.6376 H         1 UNK         0.0815 
    109 H109       24.8093   32.2618    3.0329 H         1 UNK         0.0815 
    110 H110       27.6821   32.5921   -0.1160 H         1 UNK         0.2987 
    111 H111       28.0402   35.3939   -0.7915 H         1 UNK         0.0949 
    112 H112       28.9379   32.8296   -2.2206 H         1 UNK         0.0806 
    113 H113       27.4234   33.6905   -2.5036 H         1 UNK         0.0806 
    114 H114       28.9539   34.4460   -2.9107 H         1 UNK         0.0806 
    115 H115       29.9690   33.1562    0.9934 H         1 UNK         0.3010 
    116 H116       32.2754   34.9717    0.9751 H         1 UNK         0.0829 
    117 H117       32.8541   33.3804   -0.8496 H         1 UNK         0.0813 
    118 H118       33.8703   33.0783    0.5445 H         1 UNK         0.0813 
    119 H119       32.5139   32.0037    0.1896 H         1 UNK         0.0813 
    120 H120       33.0277   31.9314    2.2418 H         1 UNK         0.3038 
    121 H121       31.4967   32.0483    4.6734 H         1 UNK         0.0769 
    122 H122       34.5550   32.4207    4.7854 H         1 UNK         0.0811 
    123 H123       33.5244   32.0844    6.1702 H         1 UNK         0.0811 
    124 H124       33.3620   33.6084    5.3108 H         1 UNK         0.0811 
    125 H125       31.4883   29.9930    5.6255 H         1 UNK         0.3204 
    126 H126       32.2161   27.7689    3.8952 H         1 UNK         0.0748 
    127 H127       30.0697   27.7753    5.1627 H         1 UNK         0.0771 
    128 H128       31.0724   26.4370    5.6918 H         1 UNK         0.0771 
    129 H129       30.9431   27.8740    6.6921 H         1 UNK         0.0771 
    130 H130       33.5730   26.0032    4.4857 H         1 UNK         0.2980 
    131 H131       36.0212   26.7601    5.7358 H         1 UNK         0.0545 
    132 H132       33.1898   25.5520    7.3347 H         1 UNK         0.3459 
    133 H133       34.0170   25.0028    8.7704 H         1 UNK         0.3459 
    134 H134       36.8362   24.5348    5.1491 H         1 UNK         0.0616 
    135 H135       35.2248   23.9469    4.8674 H         1 UNK         0.0616 
    136 H136       35.0609   23.1970    2.5789 H         1 UNK         0.0634 
    137 H137       35.1462   24.2005    1.1588 H         1 UNK         0.0634 
@<TRIPOS>BOND
     1    1    2 1    
     2    1   72 1    
     3    1   73 1    
     4    1   74 1    
     5    2    3 2    
     6    2    4 am   BACKBONE|DICT|INTERRES
     7    4    5 1    
     8    4   75 1    
     9    5    6 1    
    10    5   35 1    
    11    5   76 1    
    12    6    7 1    
    13    6   77 1    
    14    6   78 1    
    15    7    8 1    
    16    8    9 1    
    17    8   79 1    
    18    8   80 1    
    19    9   10 ar   
    20    9   14 ar   
    21   10   11 ar   
    22   10   81 1    
    23   11   12 ar   
    24   11   71 1    
    25   12   13 ar   
    26   12   82 1    
    27   13   14 ar   
    28   13   15 1    
    29   14   83 1    
    30   15   16 1    
    31   15   84 1    
    32   15   85 1    
    33   16   17 1    
    34   17   18 1    
    35   17   86 1    
    36   17   87 1    
    37   18   19 1    
    38   18   37 1    
    39   18   88 1    
    40   19   20 am   BACKBONE|DICT|INTERRES
    41   19   89 1    
    42   20   21 2    
    43   20   22 1    
    44   22   23 1    
    45   22   24 1    
    46   22   90 1    
    47   23   91 1    
    48   23   92 1    
    49   23   93 1    
    50   24   25 am   BACKBONE|DICT|INTERRES
    51   24   94 1    
    52   25   26 2    
    53   25   27 1    
    54   27   28 1    
    55   27   29 1    
    56   27   95 1    
    57   28   96 1    
    58   28   97 1    
    59   28   98 1    
    60   29   30 am   BACKBONE|DICT|INTERRES
    61   29   99 1    
    62   30   31 2    
    63   30   32 1    
    64   32   33 1    
    65   32   34 1    
    66   32  100 1    
    67   33  101 1    
    68   33  102 1    
    69   33  103 1    
    70   34   35 am   BACKBONE|DICT|INTERRES
    71   34  104 1    
    72   35   36 2    
    73   37   38 2    
    74   37   39 am   BACKBONE|DICT|INTERRES
    75   39   40 1    
    76   39  105 1    
    77   40   41 1    
    78   40   42 1    
    79   40  106 1    
    80   41  107 1    
    81   41  108 1    
    82   41  109 1    
    83   42   43 2    
    84   42   44 am   BACKBONE|DICT|INTERRES
    85   44   45 1    
    86   44  110 1    
    87   45   46 1    
    88   45   47 1    
    89   45  111 1    
    90   46  112 1    
    91   46  113 1    
    92   46  114 1    
    93   47   48 2    
    94   47   49 am   BACKBONE|DICT|INTERRES
    95   49   50 1    
    96   49  115 1    
    97   50   51 1    
    98   50   52 1    
    99   50  116 1    
   100   51  117 1    
   101   51  118 1    
   102   51  119 1    
   103   52   53 2    
   104   52   54 am   BACKBONE|DICT|INTERRES
   105   54   55 1    
   106   54  120 1    
   107   55   56 1    
   108   55   57 1    
   109   55  121 1    
   110   56  122 1    
   111   56  123 1    
   112   56  124 1    
   113   57   58 2    
   114   57   59 am   BACKBONE|DICT|INTERRES
   115   59   60 1    
   116   59  125 1    
   117   60   61 1    
   118   60   62 1    
   119   60  126 1    
   120   61  127 1    
   121   61  128 1    
   122   61  129 1    
   123   62   63 2    
   124   62   64 am   BACKBONE|DICT|INTERRES
   125   64   65 1    
   126   64  130 1    
   127   65   66 1    
   128   65   69 1    
   129   65  131 1    
   130   66   67 am   BACKBONE|DICT|INTERRES
   131   66   68 2    
   132   67  132 1    
   133   67  133 1    
   134   69   70 1    
   135   69  134 1    
   136   69  135 1    
   137   70   71 1    
   138   71  136 1    
   139   71  137 1    
@<TRIPOS>SUBSTRUCTURE
     1 UNK         1 GROUP             0       ****    0 ROOT    
