@<TRIPOS>MOLECULE
3R136
137   139    1
SMALL
USER_CHARGES


@<TRIPOS>ATOM
      1 CA         27.8698   21.9051   -0.5838 C.3       0 UNK        -0.1979 
      2 C          27.7654   23.3131   -1.1468 C.2       0 UNK         0.4864 
      3 O          26.8295   23.6094   -1.8911 O.2       0 UNK        -0.5359 
      4 N          28.7168   24.1890   -0.7981 N.am      1 UNK        -0.4318 
      5 CA         28.7608   25.5912   -1.2308 C.3       1 UNK         0.0824 
      6 C6         30.1116   26.2640   -0.8962 C.3       12 UNK        -0.0944 
      7 S7         31.4761   25.4279   -1.7707 S.3       12 UNK        -0.2672 
      8 C8         32.9096   25.8714   -0.7371 C.3       12 UNK         0.0333 
      9 C9         32.9194   25.2544    0.6617 C.ar      12 UNK        -0.0807 
     10 C10        33.5711   25.9412    1.6890 C.ar      12 UNK        -0.0894 
     11 C11        33.6440   25.4138    2.9791 C.ar      12 UNK        -0.0804 
     12 C12        33.0511   24.1763    3.2428 C.ar      12 UNK        -0.0824 
     13 C13        32.3922   23.4718    2.2290 C.ar      12 UNK        -0.0762 
     14 C14        32.3421   24.0081    0.9385 C.ar      12 UNK        -0.0782 
     15 C15        31.7482   22.1233    2.5276 C.3       12 UNK         0.0230 
     16 S16        29.9252   22.1912    2.4967 S.3       12 UNK        -0.2608 
     17 C17        29.5701   23.4993    3.7167 C.3       12 UNK        -0.0989 
     18 CA         28.8571   24.7021    3.0377 C.3       5 UNK         0.0716 
     19 N          27.4345   24.4669    2.7459 N.am      5 UNK        -0.4135 
     20 C          26.4612   24.2711    3.6515 C.2       4 UNK         0.5031 
     21 O          26.6686   24.0838    4.8509 O.2       4 UNK        -0.5229 
     22 CA         25.0002   24.3173    3.1758 C.3       4 UNK         0.0329 
     23 CB         24.2525   25.4932    3.8319 C.3       4 UNK        -0.2001 
     24 N          24.8491   24.4230    1.7220 N.am      4 UNK        -0.4303 
     25 C          23.9546   23.7293    1.0036 C.2       3 UNK         0.5044 
     26 O          23.2453   22.8411    1.4796 O.2       3 UNK        -0.5152 
     27 CA         23.8174   24.0591   -0.4975 C.3       3 UNK         0.0319 
     28 CB         22.3411   24.1649   -0.9364 C.3       3 UNK        -0.2001 
     29 N          24.5870   25.2281   -0.9449 N.am      3 UNK        -0.4354 
     30 C          24.4122   26.5190   -0.6136 C.2       2 UNK         0.4964 
     31 O          23.5200   26.9156    0.1364 O.2       2 UNK        -0.5047 
     32 CA         25.4192   27.5304   -1.2067 C.3       2 UNK         0.0288 
     33 CB         25.5613   28.8089   -0.3536 C.3       2 UNK        -0.2113 
     34 N          26.7347   26.9430   -1.5057 N.am      2 UNK        -0.4145 
     35 C          27.5704   26.3623   -0.6314 C.2       1 UNK         0.5006 
     36 O          27.3980   26.3495    0.5912 O.2       1 UNK        -0.5103 
     37 C          29.0027   26.0323    3.8032 C.2       5 UNK         0.5055 
     38 O          29.4818   26.0540    4.9381 O.2       5 UNK        -0.5220 
     39 N          28.5188   27.1124    3.1743 N.am      6 UNK        -0.4450 
     40 CA         28.3790   28.4313    3.7870 C.3       6 UNK         0.0367 
     41 CB         27.0086   28.5245    4.4887 C.3       6 UNK        -0.1929 
     42 C          28.6067   29.5583    2.7662 C.2       6 UNK         0.5070 
     43 O          27.8660   30.5429    2.7802 O.2       6 UNK        -0.5237 
     44 N          29.6172   29.4130    1.8966 N.am      7 UNK        -0.4739 
     45 CA         29.9643   30.4225    0.8927 C.3       7 UNK         0.0276 
     46 CB         28.9936   30.3466   -0.3038 C.3       7 UNK        -0.1927 
     47 C          31.4391   30.3291    0.4750 C.2       7 UNK         0.5013 
     48 O          31.7291   29.9597   -0.6641 O.2       7 UNK        -0.5193 
     49 N          32.3468   30.6828    1.3939 N.am      8 UNK        -0.4253 
     50 CA         33.7786   30.8598    1.1201 C.3       8 UNK         0.0242 
     51 CB         34.5018   29.5028    1.0480 C.3       8 UNK        -0.2000 
     52 C          34.4373   31.8164    2.1276 C.2       8 UNK         0.4948 
     53 O          35.5766   31.5774    2.5339 O.2       8 UNK        -0.5275 
     54 N          33.7112   32.8671    2.5389 N.am      9 UNK        -0.4246 
     55 CA         34.0800   33.9128    3.5089 C.3       9 UNK         0.0261 
     56 CB         35.2850   34.7431    3.0225 C.3       9 UNK        -0.1959 
     57 C          34.2928   33.4005    4.9466 C.2       9 UNK         0.5033 
     58 O          33.6290   33.8882    5.8622 O.2       9 UNK        -0.5390 
     59 N          35.1935   32.4244    5.1197 N.am      10 UNK        -0.4215 
     60 CA         35.4055   31.6787    6.3627 C.3       10 UNK         0.0240 
     61 CB         36.7146   30.8770    6.2734 C.3       10 UNK        -0.1982 
     62 C          34.2097   30.7605    6.6589 C.2       10 UNK         0.4970 
     63 O          33.6886   30.7788    7.7744 O.2       10 UNK        -0.4916 
     64 N          33.7698   30.0240    5.6310 N.am      11 UNK        -0.4279 
     65 CA         32.4527   29.3843    5.5814 C.3       11 UNK         0.1003 
     66 C          31.4099   30.4365    5.1286 C.2       11 UNK         0.5709 
     67 N          30.3597   30.6610    5.9048 N.am      11 UNK        -0.7358 
     68 O          31.5384   31.0283    4.0585 O.2       11 UNK        -0.4999 
     69 C69        32.4504   28.1451    4.6480 C.3       12 UNK        -0.0954 
     70 S70        33.3226   26.7378    5.4114 S.3       12 UNK        -0.2268 
     71 C71        34.4065   26.1565    4.0704 C.3       12 UNK         0.0203 
     72 H72        28.8974   21.6539   -0.3225 H         1 UNK         0.0888 
     73 H73        27.2531   21.8104    0.3097 H         1 UNK         0.0888 
     74 H74        27.5243   21.1772   -1.3174 H         1 UNK         0.0888 
     75 H75        29.4679   23.8930   -0.1931 H         1 UNK         0.3017 
     76 H76        28.6523   25.5941   -2.3180 H         1 UNK         0.0873 
     77 H77        30.2963   26.2537    0.1794 H         1 UNK         0.0745 
     78 H78        30.1136   27.3117   -1.2020 H         1 UNK         0.0745 
     79 H79        33.8176   25.5605   -1.2551 H         1 UNK         0.0705 
     80 H80        32.9481   26.9596   -0.6704 H         1 UNK         0.0705 
     81 H81        34.0511   26.8809    1.4750 H         1 UNK         0.1334 
     82 H82        33.1076   23.7629    4.2408 H         1 UNK         0.1417 
     83 H83        31.8555   23.4468    0.1535 H         1 UNK         0.1562 
     84 H84        32.0706   21.7478    3.5001 H         1 UNK         0.0748 
     85 H85        32.0866   21.3915    1.7927 H         1 UNK         0.0748 
     86 H86        30.5026   23.8099    4.1876 H         1 UNK         0.0940 
     87 H87        28.9752   23.0770    4.5262 H         1 UNK         0.0940 
     88 H88        29.3477   24.8775    2.0793 H         1 UNK         0.0703 
     89 H89        27.1668   24.6736    1.7938 H         1 UNK         0.3081 
     90 H90        24.5502   23.3881    3.5314 H         1 UNK         0.0719 
     91 H91        24.3278   25.4552    4.9195 H         1 UNK         0.0809 
     92 H92        24.6546   26.4539    3.5085 H         1 UNK         0.0809 
     93 H93        23.1915   25.4752    3.5821 H         1 UNK         0.0809 
     94 H94        25.3587   25.1626    1.2578 H         1 UNK         0.2990 
     95 H95        24.2493   23.2064   -1.0232 H         1 UNK         0.0690 
     96 H96        22.2581   24.3782   -2.0020 H         1 UNK         0.0788 
     97 H97        21.8103   24.9476   -0.3938 H         1 UNK         0.0788 
     98 H98        21.8102   23.2298   -0.7537 H         1 UNK         0.0788 
     99 H99        25.3803   24.9879   -1.5326 H         1 UNK         0.2993 
    100 H100       24.9933   27.8282   -2.1662 H         1 UNK         0.0949 
    101 H101       26.0088   28.6094    0.6206 H         1 UNK         0.0767 
    102 H102       26.1760   29.5463   -0.8666 H         1 UNK         0.0767 
    103 H103       24.5925   29.2773   -0.1760 H         1 UNK         0.0767 
    104 H104       26.9612   26.8821   -2.4894 H         1 UNK         0.3013 
    105 H105       28.1250   27.0030    2.2414 H         1 UNK         0.3121 
    106 H106       29.1490   28.5564    4.5482 H         1 UNK         0.0774 
    107 H107       26.1887   28.4552    3.7730 H         1 UNK         0.0815 
    108 H108       26.8812   27.7292    5.2234 H         1 UNK         0.0815 
    109 H109       26.9026   29.4716    5.0192 H         1 UNK         0.0815 
    110 H110       30.2094   28.5957    1.9450 H         1 UNK         0.2987 
    111 H111       29.8521   31.4131    1.3404 H         1 UNK         0.0949 
    112 H112       27.9904   30.6477   -0.0061 H         1 UNK         0.0806 
    113 H113       29.2992   31.0189   -1.1066 H         1 UNK         0.0806 
    114 H114       28.9365   29.3409   -0.7188 H         1 UNK         0.0806 
    115 H115       32.0314   30.9078    2.3387 H         1 UNK         0.3010 
    116 H116       33.8804   31.3442    0.1464 H         1 UNK         0.0829 
    117 H117       34.4903   29.0005    2.0142 H         1 UNK         0.0813 
    118 H118       35.5464   29.6293    0.7605 H         1 UNK         0.0813 
    119 H119       34.0480   28.8498    0.3046 H         1 UNK         0.0813 
    120 H120       32.7774   32.9565    2.1628 H         1 UNK         0.3038 
    121 H121       33.2223   34.5866    3.5469 H         1 UNK         0.0769 
    122 H122       35.0917   35.1842    2.0448 H         1 UNK         0.0811 
    123 H123       36.1946   34.1469    2.9454 H         1 UNK         0.0811 
    124 H124       35.4944   35.5628    3.7111 H         1 UNK         0.0811 
    125 H125       35.6445   32.0738    4.2753 H         1 UNK         0.3204 
    126 H126       35.4951   32.3944    7.1827 H         1 UNK         0.0748 
    127 H127       36.7020   30.1646    5.4473 H         1 UNK         0.0771 
    128 H128       37.5714   31.5361    6.1320 H         1 UNK         0.0771 
    129 H129       36.8889   30.3121    7.1902 H         1 UNK         0.0771 
    130 H130       34.2570   30.0936    4.7512 H         1 UNK         0.2980 
    131 H131       32.1815   29.0477    6.5845 H         1 UNK         0.0545 
    132 H132       30.2533   30.1914    6.7903 H         1 UNK         0.3459 
    133 H133       29.6799   31.3462    5.6158 H         1 UNK         0.3459 
    134 H134       32.8860   28.3840    3.6772 H         1 UNK         0.0616 
    135 H135       31.4323   27.8137    4.4473 H         1 UNK         0.0616 
    136 H136       35.1518   25.4834    4.4962 H         1 UNK         0.0634 
    137 H137       34.9608   27.0030    3.6622 H         1 UNK         0.0634 
@<TRIPOS>BOND
     1    1    2 1    
     2    1   72 1    
     3    1   73 1    
     4    1   74 1    
     5    2    3 2    
     6    2    4 am   BACKBONE|DICT|INTERRES
     7    4    5 1    
     8    4   75 1    
     9    5    6 1    
    10    5   35 1    
    11    5   76 1    
    12    6    7 1    
    13    6   77 1    
    14    6   78 1    
    15    7    8 1    
    16    8    9 1    
    17    8   79 1    
    18    8   80 1    
    19    9   10 ar   
    20    9   14 ar   
    21   10   11 ar   
    22   10   81 1    
    23   11   12 ar   
    24   11   71 1    
    25   12   13 ar   
    26   12   82 1    
    27   13   14 ar   
    28   13   15 1    
    29   14   83 1    
    30   15   16 1    
    31   15   84 1    
    32   15   85 1    
    33   16   17 1    
    34   17   18 1    
    35   17   86 1    
    36   17   87 1    
    37   18   19 1    
    38   18   37 1    
    39   18   88 1    
    40   19   20 am   BACKBONE|DICT|INTERRES
    41   19   89 1    
    42   20   21 2    
    43   20   22 1    
    44   22   23 1    
    45   22   24 1    
    46   22   90 1    
    47   23   91 1    
    48   23   92 1    
    49   23   93 1    
    50   24   25 am   BACKBONE|DICT|INTERRES
    51   24   94 1    
    52   25   26 2    
    53   25   27 1    
    54   27   28 1    
    55   27   29 1    
    56   27   95 1    
    57   28   96 1    
    58   28   97 1    
    59   28   98 1    
    60   29   30 am   BACKBONE|DICT|INTERRES
    61   29   99 1    
    62   30   31 2    
    63   30   32 1    
    64   32   33 1    
    65   32   34 1    
    66   32  100 1    
    67   33  101 1    
    68   33  102 1    
    69   33  103 1    
    70   34   35 am   BACKBONE|DICT|INTERRES
    71   34  104 1    
    72   35   36 2    
    73   37   38 2    
    74   37   39 am   BACKBONE|DICT|INTERRES
    75   39   40 1    
    76   39  105 1    
    77   40   41 1    
    78   40   42 1    
    79   40  106 1    
    80   41  107 1    
    81   41  108 1    
    82   41  109 1    
    83   42   43 2    
    84   42   44 am   BACKBONE|DICT|INTERRES
    85   44   45 1    
    86   44  110 1    
    87   45   46 1    
    88   45   47 1    
    89   45  111 1    
    90   46  112 1    
    91   46  113 1    
    92   46  114 1    
    93   47   48 2    
    94   47   49 am   BACKBONE|DICT|INTERRES
    95   49   50 1    
    96   49  115 1    
    97   50   51 1    
    98   50   52 1    
    99   50  116 1    
   100   51  117 1    
   101   51  118 1    
   102   51  119 1    
   103   52   53 2    
   104   52   54 am   BACKBONE|DICT|INTERRES
   105   54   55 1    
   106   54  120 1    
   107   55   56 1    
   108   55   57 1    
   109   55  121 1    
   110   56  122 1    
   111   56  123 1    
   112   56  124 1    
   113   57   58 2    
   114   57   59 am   BACKBONE|DICT|INTERRES
   115   59   60 1    
   116   59  125 1    
   117   60   61 1    
   118   60   62 1    
   119   60  126 1    
   120   61  127 1    
   121   61  128 1    
   122   61  129 1    
   123   62   63 2    
   124   62   64 am   BACKBONE|DICT|INTERRES
   125   64   65 1    
   126   64  130 1    
   127   65   66 1    
   128   65   69 1    
   129   65  131 1    
   130   66   67 am   BACKBONE|DICT|INTERRES
   131   66   68 2    
   132   67  132 1    
   133   67  133 1    
   134   69   70 1    
   135   69  134 1    
   136   69  135 1    
   137   70   71 1    
   138   71  136 1    
   139   71  137 1    
@<TRIPOS>SUBSTRUCTURE
     1 UNK         1 GROUP             0       ****    0 ROOT    
