@<TRIPOS>MOLECULE
3R136
137   139    1
SMALL
USER_CHARGES


@<TRIPOS>ATOM
      1 CA         26.6747   18.8637    4.2962 C.3       0 UNK        -0.1979 
      2 C          26.9032   19.7117    3.0535 C.2       0 UNK         0.4864 
      3 O          26.3456   19.4104    1.9966 O.2       0 UNK        -0.5359 
      4 N          27.7252   20.7623    3.1701 N.am      1 UNK        -0.4318 
      5 CA         28.0285   21.7148    2.0966 C.3       1 UNK         0.0824 
      6 C6         29.2457   22.6051    2.4440 C.3       12 UNK        -0.0944 
      7 S7         30.7687   21.6360    2.6853 S.3       12 UNK        -0.2672 
      8 C8         31.9491   22.9531    3.1448 C.3       12 UNK         0.0333 
      9 C9         32.3381   23.9212    2.0238 C.ar      12 UNK        -0.0807 
     10 C10        32.8911   25.1581    2.3731 C.ar      12 UNK        -0.0894 
     11 C11        33.3096   26.0601    1.3904 C.ar      12 UNK        -0.0804 
     12 C12        33.1648   25.7220    0.0439 C.ar      12 UNK        -0.0824 
     13 C13        32.5840   24.5066   -0.3272 C.ar      12 UNK        -0.0762 
     14 C14        32.1907   23.6047    0.6660 C.ar      12 UNK        -0.0782 
     15 C15        32.3931   24.1511   -1.7974 C.3       12 UNK         0.0230 
     16 S16        31.6419   25.4938   -2.7797 S.3       12 UNK        -0.2608 
     17 C17        30.0099   25.7052   -1.9906 C.3       12 UNK        -0.0989 
     18 CA         29.7080   27.1960   -1.6740 C.3       5 UNK         0.0716 
     19 N          28.2794   27.4908   -1.7799 N.am      5 UNK        -0.4135 
     20 C          27.7564   28.5824   -2.3568 C.2       4 UNK         0.5031 
     21 O          28.4223   29.4482   -2.9256 O.2       4 UNK        -0.5229 
     22 CA         26.2242   28.7406   -2.3017 C.3       4 UNK         0.0329 
     23 CB         25.5818   28.1890   -3.5848 C.3       4 UNK        -0.2001 
     24 N          25.6223   28.0813   -1.1413 N.am      4 UNK        -0.4303 
     25 C          25.7751   28.4877    0.1269 C.2       3 UNK         0.5044 
     26 O          26.3253   29.5423    0.4395 O.2       3 UNK        -0.5152 
     27 CA         25.2476   27.5547    1.2343 C.3       3 UNK         0.0319 
     28 CB         23.9253   28.0926    1.8042 C.3       3 UNK        -0.2001 
     29 N          25.0613   26.1560    0.8220 N.am      3 UNK        -0.4354 
     30 C          26.0380   25.3342    0.4148 C.2       2 UNK         0.4964 
     31 O          27.2130   25.6803    0.2669 O.2       2 UNK        -0.5047 
     32 CA         25.6284   23.9033    0.0407 C.3       2 UNK         0.0288 
     33 CB         25.4732   23.7792   -1.4841 C.3       2 UNK        -0.2113 
     34 N          26.6355   22.9479    0.5016 N.am      2 UNK        -0.4145 
     35 C          26.8069   22.6010    1.7840 C.2       1 UNK         0.5006 
     36 O          26.0739   22.9821    2.7018 O.2       1 UNK        -0.5103 
     37 C          30.2067   27.6304   -0.2836 C.2       5 UNK         0.5055 
     38 O          31.1244   28.4478   -0.1884 O.2       5 UNK        -0.5220 
     39 N          29.5511   27.1294    0.7733 N.am      6 UNK        -0.4450 
     40 CA         29.7958   27.4830    2.1714 C.3       6 UNK         0.0367 
     41 CB         29.3490   26.3150    3.0673 C.3       6 UNK        -0.1929 
     42 C          29.0899   28.8025    2.5255 C.2       6 UNK         0.5070 
     43 O          28.1430   28.8124    3.3150 O.2       6 UNK        -0.5237 
     44 N          29.5452   29.8916    1.8969 N.am      7 UNK        -0.4739 
     45 CA         29.0026   31.2445    2.0133 C.3       7 UNK         0.0276 
     46 CB         29.5344   32.0907    0.8423 C.3       7 UNK        -0.1927 
     47 C          29.2939   31.8835    3.3846 C.2       7 UNK         0.5013 
     48 O          30.1617   32.7539    3.4884 O.2       7 UNK        -0.5193 
     49 N          28.5583   31.4304    4.4087 N.am      8 UNK        -0.4253 
     50 CA         28.5429   31.9096    5.7947 C.3       8 UNK         0.0242 
     51 CB         27.8925   33.3095    5.8758 C.3       8 UNK        -0.2000 
     52 C          29.9305   31.8375    6.4570 C.2       8 UNK         0.4948 
     53 O          30.3046   30.7756    6.9548 O.2       8 UNK        -0.5275 
     54 N          30.6612   32.9603    6.4514 N.am      9 UNK        -0.4246 
     55 CA         32.0198   33.0865    6.9809 C.3       9 UNK         0.0261 
     56 CB         32.3521   34.5776    7.1549 C.3       9 UNK        -0.1959 
     57 C          33.0904   32.3946    6.1167 C.2       9 UNK         0.5033 
     58 O          34.1830   32.1352    6.6275 O.2       9 UNK        -0.5390 
     59 N          32.7866   32.1163    4.8379 N.am      10 UNK        -0.4215 
     60 CA         33.6778   31.4132    3.9107 C.3       10 UNK         0.0240 
     61 CB         33.0296   31.3335    2.5204 C.3       10 UNK        -0.1982 
     62 C          34.0324   30.0058    4.4173 C.2       10 UNK         0.4970 
     63 O          33.1372   29.2637    4.8266 O.2       10 UNK        -0.4916 
     64 N          35.3300   29.6825    4.3742 N.am      11 UNK        -0.4279 
     65 CA         35.9349   28.4334    4.8711 C.3       11 UNK         0.1003 
     66 C          35.8978   28.2655    6.4224 C.2       11 UNK         0.5709 
     67 N          35.5407   29.2824    7.2002 N.am      11 UNK        -0.7358 
     68 O          36.2373   27.2031    6.9385 O.2       11 UNK        -0.4999 
     69 C69        35.4415   27.1598    4.1212 C.3       12 UNK        -0.0954 
     70 S70        35.6247   27.2851    2.3076 S.3       12 UNK        -0.2268 
     71 C71        33.8906   27.4139    1.7691 C.3       12 UNK         0.0203 
     72 H72        27.2395   19.2339    5.1518 H         1 UNK         0.0888 
     73 H73        25.6179   18.8648    4.5617 H         1 UNK         0.0888 
     74 H74        26.9790   17.8342    4.1094 H         1 UNK         0.0888 
     75 H75        28.1499   20.9661    4.0631 H         1 UNK         0.3017 
     76 H76        28.2685   21.1376    1.2006 H         1 UNK         0.0873 
     77 H77        29.0517   23.1827    3.3500 H         1 UNK         0.0745 
     78 H78        29.4288   23.3288    1.6469 H         1 UNK         0.0745 
     79 H79        31.5328   23.5096    3.9861 H         1 UNK         0.0705 
     80 H80        32.8597   22.4783    3.5120 H         1 UNK         0.0705 
     81 H81        33.0024   25.4165    3.4164 H         1 UNK         0.1334 
     82 H82        33.4800   26.4201   -0.7196 H         1 UNK         0.1417 
     83 H83        31.7725   22.6526    0.3722 H         1 UNK         0.1562 
     84 H84        31.7757   23.2577   -1.9047 H         1 UNK         0.0748 
     85 H85        33.3660   23.9064   -2.2255 H         1 UNK         0.0748 
     86 H86        29.9158   25.0697   -1.1076 H         1 UNK         0.0940 
     87 H87        29.2776   25.3188   -2.7016 H         1 UNK         0.0940 
     88 H88        30.2381   27.8085   -2.4068 H         1 UNK         0.0703 
     89 H89        27.6618   26.8604   -1.2815 H         1 UNK         0.3081 
     90 H90        26.0044   29.8087   -2.2393 H         1 UNK         0.0719 
     91 H91        25.9925   28.6804   -4.4681 H         1 UNK         0.0809 
     92 H92        25.7557   27.1181   -3.6978 H         1 UNK         0.0809 
     93 H93        24.5048   28.3583   -3.5944 H         1 UNK         0.0809 
     94 H94        25.1225   27.2208   -1.3096 H         1 UNK         0.2990 
     95 H95        25.9910   27.5617    2.0344 H         1 UNK         0.0690 
     96 H96        24.0399   29.1206    2.1514 H         1 UNK         0.0788 
     97 H97        23.5905   27.5019    2.6571 H         1 UNK         0.0788 
     98 H98        23.1311   28.0874    1.0566 H         1 UNK         0.0788 
     99 H99        24.1210   25.7930    0.8925 H         1 UNK         0.2993 
    100 H100       24.6740   23.6627    0.5148 H         1 UNK         0.0949 
    101 H101       25.1762   22.7700   -1.7707 H         1 UNK         0.0767 
    102 H102       24.7052   24.4582   -1.8569 H         1 UNK         0.0767 
    103 H103       26.4009   24.0165   -2.0074 H         1 UNK         0.0767 
    104 H104       27.2978   22.6249   -0.1883 H         1 UNK         0.3013 
    105 H105       28.7546   26.5163    0.6071 H         1 UNK         0.3121 
    106 H106       30.8661   27.6302    2.3252 H         1 UNK         0.0774 
    107 H107       29.4999   26.5506    4.1215 H         1 UNK         0.0815 
    108 H108       28.2932   26.0774    2.9302 H         1 UNK         0.0815 
    109 H109       29.9279   25.4192    2.8519 H         1 UNK         0.0815 
    110 H110       30.3003   29.7585    1.2329 H         1 UNK         0.2987 
    111 H111       27.9170   31.1859    1.9077 H         1 UNK         0.0949 
    112 H112       29.1487   33.1098    0.8908 H         1 UNK         0.0806 
    113 H113       30.6227   32.1531    0.8459 H         1 UNK         0.0806 
    114 H114       29.2259   31.6736   -0.1169 H         1 UNK         0.0806 
    115 H115       27.9901   30.6093    4.2195 H         1 UNK         0.3010 
    116 H116       27.9042   31.2214    6.3508 H         1 UNK         0.0829 
    117 H117       28.4041   34.0464    5.2559 H         1 UNK         0.0813 
    118 H118       26.8538   33.2739    5.5471 H         1 UNK         0.0813 
    119 H119       27.8893   33.6830    6.9009 H         1 UNK         0.0813 
    120 H120       30.2804   33.7679    5.9787 H         1 UNK         0.3038 
    121 H121       32.0449   32.6140    7.9652 H         1 UNK         0.0769 
    122 H122       32.3327   35.1096    6.2028 H         1 UNK         0.0811 
    123 H123       33.3482   34.7083    7.5805 H         1 UNK         0.0811 
    124 H124       31.6480   35.0661    7.8287 H         1 UNK         0.0811 
    125 H125       31.8621   32.3557    4.4912 H         1 UNK         0.3204 
    126 H126       34.5917   32.0054    3.8289 H         1 UNK         0.0748 
    127 H127       33.7032   30.8671    1.8001 H         1 UNK         0.0771 
    128 H128       32.1164   30.7395    2.5414 H         1 UNK         0.0771 
    129 H129       32.7800   32.3241    2.1399 H         1 UNK         0.0771 
    130 H130       35.9875   30.3662    4.0284 H         1 UNK         0.2980 
    131 H131       36.9967   28.5353    4.6446 H         1 UNK         0.0545 
    132 H132       35.5387   29.1555    8.1996 H         1 UNK         0.3459 
    133 H133       35.2404   30.1643    6.8060 H         1 UNK         0.3459 
    134 H134       34.4061   26.9427    4.3831 H         1 UNK         0.0616 
    135 H135       36.0164   26.2882    4.4381 H         1 UNK         0.0616 
    136 H136       33.2788   27.8731    2.5441 H         1 UNK         0.0634 
    137 H137       33.8454   28.0941    0.9171 H         1 UNK         0.0634 
@<TRIPOS>BOND
     1    1    2 1    
     2    1   72 1    
     3    1   73 1    
     4    1   74 1    
     5    2    3 2    
     6    2    4 am   BACKBONE|DICT|INTERRES
     7    4    5 1    
     8    4   75 1    
     9    5    6 1    
    10    5   35 1    
    11    5   76 1    
    12    6    7 1    
    13    6   77 1    
    14    6   78 1    
    15    7    8 1    
    16    8    9 1    
    17    8   79 1    
    18    8   80 1    
    19    9   10 ar   
    20    9   14 ar   
    21   10   11 ar   
    22   10   81 1    
    23   11   12 ar   
    24   11   71 1    
    25   12   13 ar   
    26   12   82 1    
    27   13   14 ar   
    28   13   15 1    
    29   14   83 1    
    30   15   16 1    
    31   15   84 1    
    32   15   85 1    
    33   16   17 1    
    34   17   18 1    
    35   17   86 1    
    36   17   87 1    
    37   18   19 1    
    38   18   37 1    
    39   18   88 1    
    40   19   20 am   BACKBONE|DICT|INTERRES
    41   19   89 1    
    42   20   21 2    
    43   20   22 1    
    44   22   23 1    
    45   22   24 1    
    46   22   90 1    
    47   23   91 1    
    48   23   92 1    
    49   23   93 1    
    50   24   25 am   BACKBONE|DICT|INTERRES
    51   24   94 1    
    52   25   26 2    
    53   25   27 1    
    54   27   28 1    
    55   27   29 1    
    56   27   95 1    
    57   28   96 1    
    58   28   97 1    
    59   28   98 1    
    60   29   30 am   BACKBONE|DICT|INTERRES
    61   29   99 1    
    62   30   31 2    
    63   30   32 1    
    64   32   33 1    
    65   32   34 1    
    66   32  100 1    
    67   33  101 1    
    68   33  102 1    
    69   33  103 1    
    70   34   35 am   BACKBONE|DICT|INTERRES
    71   34  104 1    
    72   35   36 2    
    73   37   38 2    
    74   37   39 am   BACKBONE|DICT|INTERRES
    75   39   40 1    
    76   39  105 1    
    77   40   41 1    
    78   40   42 1    
    79   40  106 1    
    80   41  107 1    
    81   41  108 1    
    82   41  109 1    
    83   42   43 2    
    84   42   44 am   BACKBONE|DICT|INTERRES
    85   44   45 1    
    86   44  110 1    
    87   45   46 1    
    88   45   47 1    
    89   45  111 1    
    90   46  112 1    
    91   46  113 1    
    92   46  114 1    
    93   47   48 2    
    94   47   49 am   BACKBONE|DICT|INTERRES
    95   49   50 1    
    96   49  115 1    
    97   50   51 1    
    98   50   52 1    
    99   50  116 1    
   100   51  117 1    
   101   51  118 1    
   102   51  119 1    
   103   52   53 2    
   104   52   54 am   BACKBONE|DICT|INTERRES
   105   54   55 1    
   106   54  120 1    
   107   55   56 1    
   108   55   57 1    
   109   55  121 1    
   110   56  122 1    
   111   56  123 1    
   112   56  124 1    
   113   57   58 2    
   114   57   59 am   BACKBONE|DICT|INTERRES
   115   59   60 1    
   116   59  125 1    
   117   60   61 1    
   118   60   62 1    
   119   60  126 1    
   120   61  127 1    
   121   61  128 1    
   122   61  129 1    
   123   62   63 2    
   124   62   64 am   BACKBONE|DICT|INTERRES
   125   64   65 1    
   126   64  130 1    
   127   65   66 1    
   128   65   69 1    
   129   65  131 1    
   130   66   67 am   BACKBONE|DICT|INTERRES
   131   66   68 2    
   132   67  132 1    
   133   67  133 1    
   134   69   70 1    
   135   69  134 1    
   136   69  135 1    
   137   70   71 1    
   138   71  136 1    
   139   71  137 1    
@<TRIPOS>SUBSTRUCTURE
     1 UNK         1 GROUP             0       ****    0 ROOT    
