@<TRIPOS>MOLECULE
3R136
137   139    1
SMALL
USER_CHARGES


@<TRIPOS>ATOM
      1 CA         31.2259   25.1354   -2.3005 C.3       0 UNK        -0.1979 
      2 C          31.0753   23.6907   -2.7707 C.2       0 UNK         0.4864 
      3 O          31.2844   23.4186   -3.9514 O.2       0 UNK        -0.5359 
      4 N          30.7284   22.7304   -1.9011 N.am      1 UNK        -0.4318 
      5 CA         30.3834   22.8927   -0.4829 C.3       1 UNK         0.0824 
      6 C6         30.4538   21.5410    0.2753 C.3       12 UNK        -0.0944 
      7 S7         32.1138   21.2611    0.9763 S.3       12 UNK        -0.2672 
      8 C8         31.7380   20.8854    2.7217 C.3       12 UNK         0.0333 
      9 C9         31.1750   22.0807    3.4830 C.ar      12 UNK        -0.0807 
     10 C10        32.0314   23.0586    3.9978 C.ar      12 UNK        -0.0894 
     11 C11        31.5236   24.1283    4.7439 C.ar      12 UNK        -0.0804 
     12 C12        30.1426   24.2311    4.9490 C.ar      12 UNK        -0.0824 
     13 C13        29.2749   23.2625    4.4346 C.ar      12 UNK        -0.0762 
     14 C14        29.8001   22.1844    3.7161 C.ar      12 UNK        -0.0782 
     15 C15        27.7733   23.3519    4.6718 C.3       12 UNK         0.0230 
     16 S16        26.8831   23.6880    3.1191 S.3       12 UNK        -0.2608 
     17 C17        26.0525   25.2732    3.4634 C.3       12 UNK        -0.0989 
     18 CA         27.0032   26.4892    3.6053 C.3       5 UNK         0.0716 
     19 N          27.9370   26.6323    2.4824 N.am      5 UNK        -0.4135 
     20 C          28.9359   27.5272    2.4452 C.2       4 UNK         0.5031 
     21 O          29.2425   28.2363    3.4011 O.2       4 UNK        -0.5229 
     22 CA         29.6812   27.7143    1.1132 C.3       4 UNK         0.0329 
     23 CB         31.0292   26.9752    1.1237 C.3       4 UNK        -0.2001 
     24 N          28.8994   27.2994   -0.0544 N.am      4 UNK        -0.4303 
     25 C          27.8157   27.9339   -0.5234 C.2       3 UNK         0.5044 
     26 O          27.3219   28.9272    0.0081 O.2       3 UNK        -0.5152 
     27 CA         27.1516   27.3421   -1.7781 C.3       3 UNK         0.0319 
     28 CB         27.8525   27.8493   -3.0483 C.3       3 UNK        -0.2001 
     29 N          27.1388   25.8774   -1.7738 N.am      3 UNK        -0.4354 
     30 C          26.3949   25.1376   -0.9392 C.2       2 UNK         0.4964 
     31 O          25.5947   25.6108   -0.1321 O.2       2 UNK        -0.5047 
     32 CA         26.6121   23.6144   -0.9862 C.3       2 UNK         0.0288 
     33 CB         25.7787   22.9835   -2.1135 C.3       2 UNK        -0.2113 
     34 N          28.0156   23.1953   -1.1190 N.am      2 UNK        -0.4145 
     35 C          29.0075   23.5560   -0.2890 C.2       1 UNK         0.5006 
     36 O          28.8830   24.4020    0.5929 O.2       1 UNK        -0.5103 
     37 C          26.1750   27.7728    3.8459 C.2       5 UNK         0.5055 
     38 O          25.8366   28.0600    4.9952 O.2       5 UNK        -0.5220 
     39 N          25.8653   28.5141    2.7707 N.am      6 UNK        -0.4450 
     40 CA         25.1924   29.8112    2.8226 C.3       6 UNK         0.0367 
     41 CB         24.2722   29.9671    1.5998 C.3       6 UNK        -0.1929 
     42 C          26.2234   30.9467    2.8897 C.2       6 UNK         0.5070 
     43 O          26.1724   31.7667    3.8074 O.2       6 UNK        -0.5237 
     44 N          27.1592   30.9682    1.9317 N.am      7 UNK        -0.4739 
     45 CA         28.2490   31.9392    1.8311 C.3       7 UNK         0.0276 
     46 CB         28.6928   32.0374    0.3592 C.3       7 UNK        -0.1927 
     47 C          29.4067   31.5549    2.7676 C.2       7 UNK         0.5013 
     48 O          30.4899   31.2074    2.2946 O.2       7 UNK        -0.5193 
     49 N          29.1479   31.6243    4.0816 N.am      8 UNK        -0.4253 
     50 CA         30.0125   31.1649    5.1787 C.3       8 UNK         0.0242 
     51 CB         29.3453   31.5083    6.5199 C.3       8 UNK        -0.2000 
     52 C          31.4650   31.6753    5.1562 C.2       8 UNK         0.4948 
     53 O          32.3467   30.9921    5.6759 O.2       8 UNK        -0.5275 
     54 N          31.7058   32.8327    4.5238 N.am      9 UNK        -0.4246 
     55 CA         33.0375   33.3821    4.2551 C.3       9 UNK         0.0261 
     56 CB         32.8929   34.7594    3.5885 C.3       9 UNK        -0.1959 
     57 C          33.9299   32.4613    3.3987 C.2       9 UNK         0.5033 
     58 O          35.1494   32.4866    3.5713 O.2       9 UNK        -0.5390 
     59 N          33.3250   31.6392    2.5256 N.am      10 UNK        -0.4215 
     60 CA         34.0243   30.6468    1.7029 C.3       10 UNK         0.0240 
     61 CB         33.0752   30.1204    0.6148 C.3       10 UNK        -0.1982 
     62 C          34.6188   29.4817    2.5167 C.2       10 UNK         0.4970 
     63 O          35.5584   28.8445    2.0393 O.2       10 UNK        -0.4916 
     64 N          34.0907   29.2368    3.7235 N.am      11 UNK        -0.4279 
     65 CA         34.6411   28.2811    4.6961 C.3       11 UNK         0.1003 
     66 C          35.8482   28.8426    5.5060 C.2       11 UNK         0.5709 
     67 N          36.2368   30.1054    5.3582 N.am      11 UNK        -0.7358 
     68 O          36.4612   28.1079    6.2770 O.2       11 UNK        -0.4999 
     69 C69        33.5397   27.7199    5.6342 C.3       12 UNK        -0.0954 
     70 S70        32.2410   26.8164    4.7252 S.3       12 UNK        -0.2268 
     71 C71        32.4724   25.1364    5.3786 C.3       12 UNK         0.0203 
     72 H72        30.2606   25.5631   -2.0400 H         1 UNK         0.0888 
     73 H73        31.8924   25.2034   -1.4417 H         1 UNK         0.0888 
     74 H74        31.6546   25.7489   -3.0927 H         1 UNK         0.0888 
     75 H75        30.6797   21.7825   -2.2461 H         1 UNK         0.3017 
     76 H76        31.1053   23.5741   -0.0284 H         1 UNK         0.0873 
     77 H77        30.2029   20.7047   -0.3794 H         1 UNK         0.0745 
     78 H78        29.7232   21.4919    1.0824 H         1 UNK         0.0745 
     79 H79        31.0472   20.0418    2.7660 H         1 UNK         0.0705 
     80 H80        32.6538   20.5476    3.2090 H         1 UNK         0.0705 
     81 H81        33.0973   22.9704    3.8367 H         1 UNK         0.1334 
     82 H82        29.7495   25.0604    5.5212 H         1 UNK         0.1417 
     83 H83        29.1287   21.4262    3.3370 H         1 UNK         0.1562 
     84 H84        27.5412   24.1108    5.4199 H         1 UNK         0.0748 
     85 H85        27.4178   22.4058    5.0822 H         1 UNK         0.0748 
     86 H86        25.4509   25.1525    4.3667 H         1 UNK         0.0940 
     87 H87        25.3416   25.4436    2.6521 H         1 UNK         0.0940 
     88 H88        27.6125   26.3382    4.4983 H         1 UNK         0.0703 
     89 H89        27.8186   25.9976    1.7013 H         1 UNK         0.3081 
     90 H90        29.8836   28.7821    1.0076 H         1 UNK         0.0719 
     91 H91        30.9100   25.9068    1.3046 H         1 UNK         0.0809 
     92 H92        31.5656   27.1077    0.1847 H         1 UNK         0.0809 
     93 H93        31.6710   27.3639    1.9141 H         1 UNK         0.0809 
     94 H94        29.1591   26.4194   -0.4728 H         1 UNK         0.2990 
     95 H95        26.1168   27.6914   -1.7997 H         1 UNK         0.0690 
     96 H96        27.3452   27.4995   -3.9477 H         1 UNK         0.0788 
     97 H97        28.8919   27.5229   -3.0998 H         1 UNK         0.0788 
     98 H98        27.8524   28.9398   -3.0824 H         1 UNK         0.0788 
     99 H99        27.7446   25.4049   -2.4281 H         1 UNK         0.2993 
    100 H100       26.2517   23.2165   -0.0347 H         1 UNK         0.0949 
    101 H101       24.7286   23.2674   -2.0288 H         1 UNK         0.0767 
    102 H102       26.1241   23.2999   -3.0985 H         1 UNK         0.0767 
    103 H103       25.8205   21.8947   -2.0762 H         1 UNK         0.0767 
    104 H104       28.2163   22.5119   -1.8347 H         1 UNK         0.3013 
    105 H105       26.2194   28.2271    1.8669 H         1 UNK         0.3121 
    106 H106       24.5687   29.8699    3.7174 H         1 UNK         0.0774 
    107 H107       23.7665   30.9335    1.6145 H         1 UNK         0.0815 
    108 H108       24.8213   29.9009    0.6599 H         1 UNK         0.0815 
    109 H109       23.4997   29.1980    1.5880 H         1 UNK         0.0815 
    110 H110       27.1583   30.2311    1.2275 H         1 UNK         0.2987 
    111 H111       27.8854   32.9227    2.1370 H         1 UNK         0.0949 
    112 H112       29.0743   31.0857   -0.0130 H         1 UNK         0.0806 
    113 H113       27.8672   32.3404   -0.2847 H         1 UNK         0.0806 
    114 H114       29.4868   32.7755    0.2392 H         1 UNK         0.0806 
    115 H115       28.2016   31.8847    4.3378 H         1 UNK         0.3010 
    116 H116       30.0683   30.0778    5.0986 H         1 UNK         0.0829 
    117 H117       28.3652   31.0386    6.6067 H         1 UNK         0.0813 
    118 H118       29.9469   31.1541    7.3585 H         1 UNK         0.0813 
    119 H119       29.2158   32.5844    6.6416 H         1 UNK         0.0813 
    120 H120       30.9201   33.3238    4.1236 H         1 UNK         0.3038 
    121 H121       33.5370   33.5160    5.2169 H         1 UNK         0.0769 
    122 H122       32.3741   34.6924    2.6312 H         1 UNK         0.0811 
    123 H123       33.8706   35.2049    3.3986 H         1 UNK         0.0811 
    124 H124       32.3413   35.4530    4.2234 H         1 UNK         0.0811 
    125 H125       32.3072   31.6350    2.4667 H         1 UNK         0.3204 
    126 H126       34.8566   31.1520    1.2082 H         1 UNK         0.0748 
    127 H127       33.5811   29.4074   -0.0376 H         1 UNK         0.0771 
    128 H128       32.2148   29.6127    1.0486 H         1 UNK         0.0771 
    129 H129       32.7024   30.9296   -0.0134 H         1 UNK         0.0771 
    130 H130       33.3393   29.8214    4.0669 H         1 UNK         0.2980 
    131 H131       35.0425   27.4324    4.1391 H         1 UNK         0.0545 
    132 H132       37.0248   30.4390    5.8899 H         1 UNK         0.3459 
    133 H133       35.7593   30.7316    4.7232 H         1 UNK         0.3459 
    134 H134       33.0669   28.5250    6.1973 H         1 UNK         0.0616 
    135 H135       33.9748   27.0526    6.3802 H         1 UNK         0.0616 
    136 H136       33.5107   24.8387    5.2233 H         1 UNK         0.0634 
    137 H137       32.3095   25.1468    6.4573 H         1 UNK         0.0634 
@<TRIPOS>BOND
     1    1    2 1    
     2    1   72 1    
     3    1   73 1    
     4    1   74 1    
     5    2    3 2    
     6    2    4 am   BACKBONE|DICT|INTERRES
     7    4    5 1    
     8    4   75 1    
     9    5    6 1    
    10    5   35 1    
    11    5   76 1    
    12    6    7 1    
    13    6   77 1    
    14    6   78 1    
    15    7    8 1    
    16    8    9 1    
    17    8   79 1    
    18    8   80 1    
    19    9   10 ar   
    20    9   14 ar   
    21   10   11 ar   
    22   10   81 1    
    23   11   12 ar   
    24   11   71 1    
    25   12   13 ar   
    26   12   82 1    
    27   13   14 ar   
    28   13   15 1    
    29   14   83 1    
    30   15   16 1    
    31   15   84 1    
    32   15   85 1    
    33   16   17 1    
    34   17   18 1    
    35   17   86 1    
    36   17   87 1    
    37   18   19 1    
    38   18   37 1    
    39   18   88 1    
    40   19   20 am   BACKBONE|DICT|INTERRES
    41   19   89 1    
    42   20   21 2    
    43   20   22 1    
    44   22   23 1    
    45   22   24 1    
    46   22   90 1    
    47   23   91 1    
    48   23   92 1    
    49   23   93 1    
    50   24   25 am   BACKBONE|DICT|INTERRES
    51   24   94 1    
    52   25   26 2    
    53   25   27 1    
    54   27   28 1    
    55   27   29 1    
    56   27   95 1    
    57   28   96 1    
    58   28   97 1    
    59   28   98 1    
    60   29   30 am   BACKBONE|DICT|INTERRES
    61   29   99 1    
    62   30   31 2    
    63   30   32 1    
    64   32   33 1    
    65   32   34 1    
    66   32  100 1    
    67   33  101 1    
    68   33  102 1    
    69   33  103 1    
    70   34   35 am   BACKBONE|DICT|INTERRES
    71   34  104 1    
    72   35   36 2    
    73   37   38 2    
    74   37   39 am   BACKBONE|DICT|INTERRES
    75   39   40 1    
    76   39  105 1    
    77   40   41 1    
    78   40   42 1    
    79   40  106 1    
    80   41  107 1    
    81   41  108 1    
    82   41  109 1    
    83   42   43 2    
    84   42   44 am   BACKBONE|DICT|INTERRES
    85   44   45 1    
    86   44  110 1    
    87   45   46 1    
    88   45   47 1    
    89   45  111 1    
    90   46  112 1    
    91   46  113 1    
    92   46  114 1    
    93   47   48 2    
    94   47   49 am   BACKBONE|DICT|INTERRES
    95   49   50 1    
    96   49  115 1    
    97   50   51 1    
    98   50   52 1    
    99   50  116 1    
   100   51  117 1    
   101   51  118 1    
   102   51  119 1    
   103   52   53 2    
   104   52   54 am   BACKBONE|DICT|INTERRES
   105   54   55 1    
   106   54  120 1    
   107   55   56 1    
   108   55   57 1    
   109   55  121 1    
   110   56  122 1    
   111   56  123 1    
   112   56  124 1    
   113   57   58 2    
   114   57   59 am   BACKBONE|DICT|INTERRES
   115   59   60 1    
   116   59  125 1    
   117   60   61 1    
   118   60   62 1    
   119   60  126 1    
   120   61  127 1    
   121   61  128 1    
   122   61  129 1    
   123   62   63 2    
   124   62   64 am   BACKBONE|DICT|INTERRES
   125   64   65 1    
   126   64  130 1    
   127   65   66 1    
   128   65   69 1    
   129   65  131 1    
   130   66   67 am   BACKBONE|DICT|INTERRES
   131   66   68 2    
   132   67  132 1    
   133   67  133 1    
   134   69   70 1    
   135   69  134 1    
   136   69  135 1    
   137   70   71 1    
   138   71  136 1    
   139   71  137 1    
@<TRIPOS>SUBSTRUCTURE
     1 UNK         1 GROUP             0       ****    0 ROOT    
