@<TRIPOS>MOLECULE
3R136
137   139    1
SMALL
USER_CHARGES


@<TRIPOS>ATOM
      1 CA         30.4340   17.4179   -2.4722 C.3       0 UNK        -0.1979 
      2 C          30.6983   18.5154   -1.4518 C.2       0 UNK         0.4864 
      3 O          31.8200   18.6289   -0.9561 O.2       0 UNK        -0.5359 
      4 N          29.6714   19.3156   -1.1314 N.am      1 UNK        -0.4318 
      5 CA         29.7373   20.4487   -0.2018 C.3       1 UNK         0.0824 
      6 C6         28.3097   20.9270    0.1873 C.3       12 UNK        -0.0944 
      7 S7         28.2042   22.5097    1.0959 S.3       12 UNK        -0.2672 
      8 C8         28.3069   21.9393    2.8174 C.3       12 UNK         0.0333 
      9 C9         28.0237   23.0887    3.7690 C.ar      12 UNK        -0.0807 
     10 C10        29.0707   23.8324    4.3235 C.ar      12 UNK        -0.0894 
     11 C11        28.7955   24.9117    5.1690 C.ar      12 UNK        -0.0804 
     12 C12        27.4706   25.2273    5.4801 C.ar      12 UNK        -0.0824 
     13 C13        26.4194   24.5204    4.8946 C.ar      12 UNK        -0.0762 
     14 C14        26.7014   23.4364    4.0590 C.ar      12 UNK        -0.0782 
     15 C15        24.9811   24.9630    5.1087 C.3       12 UNK         0.0230 
     16 S16        24.3064   25.7233    3.5957 S.3       12 UNK        -0.2608 
     17 C17        24.9733   27.4282    3.6389 C.3       12 UNK        -0.0989 
     18 CA         26.4414   27.6065    3.1414 C.3       5 UNK         0.0716 
     19 N          26.7791   26.8304    1.9435 N.am      5 UNK        -0.4135 
     20 C          26.2683   26.9833    0.7152 C.2       4 UNK         0.5031 
     21 O          25.3910   27.8026    0.4350 O.2       4 UNK        -0.5229 
     22 CA         26.8523   26.0725   -0.3881 C.3       4 UNK         0.0329 
     23 CB         26.6613   26.6680   -1.7987 C.3       4 UNK        -0.2001 
     24 N          28.2626   25.6966   -0.1970 N.am      4 UNK        -0.4303 
     25 C          29.3089   26.5194   -0.0188 C.2       3 UNK         0.5044 
     26 O          29.2073   27.7352    0.1394 O.2       3 UNK        -0.5152 
     27 CA         30.7088   25.8825    0.0060 C.3       3 UNK         0.0319 
     28 CB         31.1417   25.5987    1.4519 C.3       3 UNK        -0.2001 
     29 N          30.8208   24.6488   -0.7745 N.am      3 UNK        -0.4354 
     30 C          30.7477   24.5511   -2.1082 C.2       2 UNK         0.4964 
     31 O          30.5552   25.5148   -2.8497 O.2       2 UNK        -0.5047 
     32 CA         30.9127   23.1503   -2.7360 C.3       2 UNK         0.0288 
     33 CB         32.3925   22.8632   -3.0584 C.3       2 UNK        -0.2113 
     34 N          30.3066   22.0422   -1.9778 N.am      2 UNK        -0.4145 
     35 C          30.6285   21.5781   -0.7594 C.2       1 UNK         0.5006 
     36 O          31.5503   22.0204   -0.0711 O.2       1 UNK        -0.5103 
     37 C          26.8520   29.0975    3.0504 C.2       5 UNK         0.5055 
     38 O          26.2779   29.9216    3.7664 O.2       5 UNK        -0.5220 
     39 N          27.8251   29.4387    2.1901 N.am      6 UNK        -0.4450 
     40 CA         28.3108   30.8052    1.9963 C.3       6 UNK         0.0367 
     41 CB         28.9610   30.9208    0.6071 C.3       6 UNK        -0.1929 
     42 C          29.2731   31.2104    3.1263 C.2       6 UNK         0.5070 
     43 O          30.4771   30.9549    3.0358 O.2       6 UNK        -0.5237 
     44 N          28.7190   31.8216    4.1810 N.am      7 UNK        -0.4739 
     45 CA         29.4433   32.3525    5.3397 C.3       7 UNK         0.0276 
     46 CB         28.4354   32.9375    6.3410 C.3       7 UNK        -0.1927 
     47 C          30.4851   33.4102    4.9433 C.2       7 UNK         0.5013 
     48 O          30.1823   34.2837    4.1269 O.2       7 UNK        -0.5193 
     49 N          31.6940   33.2920    5.5081 N.am      8 UNK        -0.4253 
     50 CA         32.9036   34.0973    5.2856 C.3       8 UNK         0.0242 
     51 CB         32.6716   35.5878    5.6030 C.3       8 UNK        -0.2000 
     52 C          33.5382   33.9110    3.8956 C.2       8 UNK         0.4948 
     53 O          34.7650   33.8591    3.8026 O.2       8 UNK        -0.5275 
     54 N          32.7101   33.8023    2.8494 N.am      9 UNK        -0.4246 
     55 CA         33.1189   33.5530    1.4676 C.3       9 UNK         0.0261 
     56 CB         31.9252   33.7936    0.5322 C.3       9 UNK        -0.1959 
     57 C          33.7032   32.1458    1.2585 C.2       9 UNK         0.5033 
     58 O          34.6824   32.0132    0.5221 O.2       9 UNK        -0.5390 
     59 N          33.1097   31.1341    1.9063 N.am      10 UNK        -0.4215 
     60 CA         33.5687   29.7458    1.8709 C.3       10 UNK         0.0240 
     61 CB         32.6722   28.9173    0.9363 C.3       10 UNK        -0.1982 
     62 C          33.6109   29.1430    3.2797 C.2       10 UNK         0.4970 
     63 O          34.6494   28.6073    3.6687 O.2       10 UNK        -0.4916 
     64 N          32.4970   29.2317    4.0169 N.am      11 UNK        -0.4279 
     65 CA         32.3715   28.7111    5.3843 C.3       11 UNK         0.1003 
     66 C          33.0377   29.6735    6.3997 C.2       11 UNK         0.5709 
     67 N          34.0278   29.2122    7.1503 N.am      11 UNK        -0.7358 
     68 O          32.6312   30.8261    6.5369 O.2       11 UNK        -0.4999 
     69 C69        30.8957   28.4449    5.7725 C.3       12 UNK        -0.0954 
     70 S70        30.0566   27.2795    4.6550 S.3       12 UNK        -0.2268 
     71 C71        29.9120   25.7942    5.6963 C.3       12 UNK         0.0203 
     72 H72        30.6368   16.4412   -2.0338 H         1 UNK         0.0888 
     73 H73        29.4017   17.4245   -2.8217 H         1 UNK         0.0888 
     74 H74        31.0850   17.5454   -3.3368 H         1 UNK         0.0888 
     75 H75        28.7739   19.1536   -1.5660 H         1 UNK         0.3017 
     76 H76        30.2205   20.0936    0.7113 H         1 UNK         0.0873 
     77 H77        27.7058   21.0529   -0.7131 H         1 UNK         0.0745 
     78 H78        27.8064   20.1503    0.7654 H         1 UNK         0.0745 
     79 H79        29.2966   21.5190    3.0034 H         1 UNK         0.0705 
     80 H80        27.5878   21.1360    2.9854 H         1 UNK         0.0705 
     81 H81        30.0949   23.5906    4.0741 H         1 UNK         0.1334 
     82 H82        27.2597   26.0745    6.1188 H         1 UNK         0.1417 
     83 H83        25.8891   22.8899    3.5988 H         1 UNK         0.1562 
     84 H84        24.8973   25.6588    5.9451 H         1 UNK         0.0748 
     85 H85        24.3745   24.0945    5.3689 H         1 UNK         0.0748 
     86 H86        24.8713   27.8125    4.6555 H         1 UNK         0.0940 
     87 H87        24.3051   28.0377    3.0275 H         1 UNK         0.0940 
     88 H88        27.0946   27.2169    3.9150 H         1 UNK         0.0703 
     89 H89        27.4870   26.1219    2.0723 H         1 UNK         0.3081 
     90 H90        26.2823   25.1435   -0.3397 H         1 UNK         0.0719 
     91 H91        27.1675   27.6289   -1.8991 H         1 UNK         0.0809 
     92 H92        27.0534   26.0018   -2.5673 H         1 UNK         0.0809 
     93 H93        25.6056   26.8295   -2.0201 H         1 UNK         0.0809 
     94 H94        28.4594   24.7057   -0.2472 H         1 UNK         0.2990 
     95 H95        31.4007   26.6072   -0.4267 H         1 UNK         0.0690 
     96 H96        32.1587   25.2089    1.4947 H         1 UNK         0.0788 
     97 H97        30.4834   24.8756    1.9343 H         1 UNK         0.0788 
     98 H98        31.1216   26.5103    2.0488 H         1 UNK         0.0788 
     99 H99        31.0358   23.7961   -0.2634 H         1 UNK         0.2993 
    100 H100       30.3748   23.1802   -3.6852 H         1 UNK         0.0949 
    101 H101       33.0097   22.8378   -2.1599 H         1 UNK         0.0767 
    102 H102       32.5080   21.9082   -3.5713 H         1 UNK         0.0767 
    103 H103       32.8046   23.6340   -3.7112 H         1 UNK         0.0767 
    104 H104       29.5149   21.6089   -2.4323 H         1 UNK         0.3013 
    105 H105       28.2678   28.7223    1.6215 H         1 UNK         0.3121 
    106 H106       27.4556   31.4847    2.0077 H         1 UNK         0.0774 
    107 H107       28.2917   30.5601   -0.1742 H         1 UNK         0.0815 
    108 H108       29.1920   31.9592    0.3745 H         1 UNK         0.0815 
    109 H109       29.8877   30.3511    0.5361 H         1 UNK         0.0815 
    110 H110       27.7157   31.9453    4.1815 H         1 UNK         0.2987 
    111 H111       29.9597   31.5241    5.8226 H         1 UNK         0.0949 
    112 H112       27.7245   32.1822    6.6769 H         1 UNK         0.0806 
    113 H113       28.9430   33.3204    7.2276 H         1 UNK         0.0806 
    114 H114       27.8699   33.7634    5.9072 H         1 UNK         0.0806 
    115 H115       31.8609   32.4691    6.0852 H         1 UNK         0.3010 
    116 H116       33.6313   33.7212    6.0068 H         1 UNK         0.0829 
    117 H117       32.2721   35.7216    6.6082 H         1 UNK         0.0813 
    118 H118       33.6082   36.1443    5.5495 H         1 UNK         0.0813 
    119 H119       31.9802   36.0551    4.9014 H         1 UNK         0.0813 
    120 H120       31.7155   33.9001    3.0350 H         1 UNK         0.3038 
    121 H121       33.8989   34.2745    1.2147 H         1 UNK         0.0769 
    122 H122       32.1935   33.5968   -0.5068 H         1 UNK         0.0811 
    123 H123       31.5787   34.8256    0.5887 H         1 UNK         0.0811 
    124 H124       31.0875   33.1454    0.7845 H         1 UNK         0.0811 
    125 H125       32.2750   31.3187    2.4575 H         1 UNK         0.3204 
    126 H126       34.5883   29.7017    1.4818 H         1 UNK         0.0748 
    127 H127       33.0322   27.8902    0.8713 H         1 UNK         0.0771 
    128 H128       31.6398   28.8836    1.2862 H         1 UNK         0.0771 
    129 H129       32.6684   29.3247   -0.0747 H         1 UNK         0.0771 
    130 H130       31.6843   29.7190    3.6475 H         1 UNK         0.2980 
    131 H131       32.8904   27.7510    5.4275 H         1 UNK         0.0545 
    132 H132       34.4566   29.8261    7.8247 H         1 UNK         0.3459 
    133 H133       34.3688   28.2697    7.0417 H         1 UNK         0.3459 
    134 H134       30.8343   28.0749    6.7971 H         1 UNK         0.0616 
    135 H135       30.3202   29.3681    5.7542 H         1 UNK         0.0616 
    136 H136       30.8640   25.2615    5.7070 H         1 UNK         0.0634 
    137 H137       29.6934   26.0736    6.7280 H         1 UNK         0.0634 
@<TRIPOS>BOND
     1    1    2 1    
     2    1   72 1    
     3    1   73 1    
     4    1   74 1    
     5    2    3 2    
     6    2    4 am   BACKBONE|DICT|INTERRES
     7    4    5 1    
     8    4   75 1    
     9    5    6 1    
    10    5   35 1    
    11    5   76 1    
    12    6    7 1    
    13    6   77 1    
    14    6   78 1    
    15    7    8 1    
    16    8    9 1    
    17    8   79 1    
    18    8   80 1    
    19    9   10 ar   
    20    9   14 ar   
    21   10   11 ar   
    22   10   81 1    
    23   11   12 ar   
    24   11   71 1    
    25   12   13 ar   
    26   12   82 1    
    27   13   14 ar   
    28   13   15 1    
    29   14   83 1    
    30   15   16 1    
    31   15   84 1    
    32   15   85 1    
    33   16   17 1    
    34   17   18 1    
    35   17   86 1    
    36   17   87 1    
    37   18   19 1    
    38   18   37 1    
    39   18   88 1    
    40   19   20 am   BACKBONE|DICT|INTERRES
    41   19   89 1    
    42   20   21 2    
    43   20   22 1    
    44   22   23 1    
    45   22   24 1    
    46   22   90 1    
    47   23   91 1    
    48   23   92 1    
    49   23   93 1    
    50   24   25 am   BACKBONE|DICT|INTERRES
    51   24   94 1    
    52   25   26 2    
    53   25   27 1    
    54   27   28 1    
    55   27   29 1    
    56   27   95 1    
    57   28   96 1    
    58   28   97 1    
    59   28   98 1    
    60   29   30 am   BACKBONE|DICT|INTERRES
    61   29   99 1    
    62   30   31 2    
    63   30   32 1    
    64   32   33 1    
    65   32   34 1    
    66   32  100 1    
    67   33  101 1    
    68   33  102 1    
    69   33  103 1    
    70   34   35 am   BACKBONE|DICT|INTERRES
    71   34  104 1    
    72   35   36 2    
    73   37   38 2    
    74   37   39 am   BACKBONE|DICT|INTERRES
    75   39   40 1    
    76   39  105 1    
    77   40   41 1    
    78   40   42 1    
    79   40  106 1    
    80   41  107 1    
    81   41  108 1    
    82   41  109 1    
    83   42   43 2    
    84   42   44 am   BACKBONE|DICT|INTERRES
    85   44   45 1    
    86   44  110 1    
    87   45   46 1    
    88   45   47 1    
    89   45  111 1    
    90   46  112 1    
    91   46  113 1    
    92   46  114 1    
    93   47   48 2    
    94   47   49 am   BACKBONE|DICT|INTERRES
    95   49   50 1    
    96   49  115 1    
    97   50   51 1    
    98   50   52 1    
    99   50  116 1    
   100   51  117 1    
   101   51  118 1    
   102   51  119 1    
   103   52   53 2    
   104   52   54 am   BACKBONE|DICT|INTERRES
   105   54   55 1    
   106   54  120 1    
   107   55   56 1    
   108   55   57 1    
   109   55  121 1    
   110   56  122 1    
   111   56  123 1    
   112   56  124 1    
   113   57   58 2    
   114   57   59 am   BACKBONE|DICT|INTERRES
   115   59   60 1    
   116   59  125 1    
   117   60   61 1    
   118   60   62 1    
   119   60  126 1    
   120   61  127 1    
   121   61  128 1    
   122   61  129 1    
   123   62   63 2    
   124   62   64 am   BACKBONE|DICT|INTERRES
   125   64   65 1    
   126   64  130 1    
   127   65   66 1    
   128   65   69 1    
   129   65  131 1    
   130   66   67 am   BACKBONE|DICT|INTERRES
   131   66   68 2    
   132   67  132 1    
   133   67  133 1    
   134   69   70 1    
   135   69  134 1    
   136   69  135 1    
   137   70   71 1    
   138   71  136 1    
   139   71  137 1    
@<TRIPOS>SUBSTRUCTURE
     1 UNK         1 GROUP             0       ****    0 ROOT    
