@<TRIPOS>MOLECULE
3R136
137   139    1
SMALL
USER_CHARGES


@<TRIPOS>ATOM
      1 CA         32.0508   21.4511    1.0065 C.3       0 UNK        -0.1979 
      2 C          30.9695   22.5213    0.9921 C.2       0 UNK         0.4864 
      3 O          30.1440   22.5586    1.9044 O.2       0 UNK        -0.5359 
      4 N          30.9819   23.3858   -0.0342 N.am      1 UNK        -0.4318 
      5 CA         30.0529   24.5047   -0.2604 C.3       1 UNK         0.0824 
      6 C6         30.1693   25.6401    0.7876 C.3       12 UNK        -0.0944 
      7 S7         31.8660   26.2975    0.9460 S.3       12 UNK        -0.2672 
      8 C8         32.3653   25.7262    2.6028 C.3       12 UNK         0.0333 
      9 C9         31.4710   26.2824    3.7016 C.ar      12 UNK        -0.0807 
     10 C10        31.6405   27.5936    4.1538 C.ar      12 UNK        -0.0894 
     11 C11        30.8412   28.1021    5.1847 C.ar      12 UNK        -0.0804 
     12 C12        29.8304   27.2991    5.7216 C.ar      12 UNK        -0.0824 
     13 C13        29.6253   25.9987    5.2497 C.ar      12 UNK        -0.0762 
     14 C14        30.4712   25.4849    4.2652 C.ar      12 UNK        -0.0782 
     15 C15        28.4765   25.1540    5.7842 C.3       12 UNK         0.0230 
     16 S16        27.1479   24.9344    4.5491 S.3       12 UNK        -0.2608 
     17 C17        26.6283   26.6553    4.2256 C.3       12 UNK        -0.0989 
     18 CA         26.7570   27.0363    2.7198 C.3       5 UNK         0.0716 
     19 N          25.8156   26.3002    1.8596 N.am      5 UNK        -0.4135 
     20 C          24.4790   26.4393    1.8723 C.2       4 UNK         0.5031 
     21 O          23.8838   27.1875    2.6510 O.2       4 UNK        -0.5229 
     22 CA         23.6567   25.6226    0.8512 C.3       4 UNK         0.0329 
     23 CB         22.2672   26.2440    0.5939 C.3       4 UNK        -0.2001 
     24 N          24.3130   25.3624   -0.4356 N.am      4 UNK        -0.4303 
     25 C          24.8961   26.2335   -1.2711 C.2       3 UNK         0.5044 
     26 O          25.1037   27.4150   -0.9932 O.2       3 UNK        -0.5152 
     27 CA         25.3400   25.6704   -2.6402 C.3       3 UNK         0.0319 
     28 CB         25.9732   26.7463   -3.5424 C.3       3 UNK        -0.2001 
     29 N          26.2856   24.5620   -2.4936 N.am      3 UNK        -0.4354 
     30 C          25.9877   23.3262   -2.0674 C.2       2 UNK         0.4964 
     31 O          24.8348   22.9280   -1.8939 O.2       2 UNK        -0.5047 
     32 CA         27.1620   22.3955   -1.7126 C.3       2 UNK         0.0288 
     33 CB         27.4155   21.3937   -2.8509 C.3       2 UNK        -0.2113 
     34 N          28.4209   23.0766   -1.3821 N.am      2 UNK        -0.4145 
     35 C          28.6006   24.0078   -0.4302 C.2       1 UNK         0.5006 
     36 O          27.6928   24.4617    0.2744 O.2       1 UNK        -0.5103 
     37 C          26.7052   28.5694    2.4821 C.2       5 UNK         0.5055 
     38 O          26.9219   29.3413    3.4174 O.2       5 UNK        -0.5220 
     39 N          26.4263   28.9993    1.2396 N.am      6 UNK        -0.4450 
     40 CA         26.3299   30.4138    0.8491 C.3       6 UNK         0.0367 
     41 CB         25.5367   30.5194   -0.4644 C.3       6 UNK        -0.1929 
     42 C          27.6860   31.1397    0.7209 C.2       6 UNK         0.5070 
     43 O          27.6962   32.3520    0.4996 O.2       6 UNK        -0.5237 
     44 N          28.7990   30.4030    0.8311 N.am      7 UNK        -0.4739 
     45 CA         30.1690   30.9214    0.8023 C.3       7 UNK         0.0276 
     46 CB         31.1308   29.7304    0.6659 C.3       7 UNK        -0.1927 
     47 C          30.5265   31.7522    2.0503 C.2       7 UNK         0.5013 
     48 O          29.8046   31.7255    3.0490 O.2       7 UNK        -0.5193 
     49 N          31.6663   32.4481    1.9750 N.am      8 UNK        -0.4253 
     50 CA         32.2523   33.2264    3.0698 C.3       8 UNK         0.0242 
     51 CB         31.9414   34.7212    2.8601 C.3       8 UNK        -0.2000 
     52 C          33.7600   32.9427    3.2015 C.2       8 UNK         0.4948 
     53 O          34.5160   33.8265    3.6088 O.2       8 UNK        -0.5275 
     54 N          34.1783   31.7221    2.8476 N.am      9 UNK        -0.4246 
     55 CA         35.5483   31.2271    2.9272 C.3       9 UNK         0.0261 
     56 CB         36.3409   31.6600    1.6802 C.3       9 UNK        -0.1959 
     57 C          35.4920   29.7006    3.0432 C.2       9 UNK         0.5033 
     58 O          34.5159   29.1004    2.5873 O.2       9 UNK        -0.5390 
     59 N          36.5363   29.1120    3.6456 N.am      10 UNK        -0.4215 
     60 CA         36.7073   27.6750    3.9216 C.3       10 UNK         0.0240 
     61 CB         36.8204   26.8707    2.6075 C.3       10 UNK        -0.1982 
     62 C          35.6487   27.0919    4.8842 C.2       10 UNK         0.4970 
     63 O          35.3618   25.8948    4.8261 O.2       10 UNK        -0.4916 
     64 N          35.0899   27.9471    5.7484 N.am      11 UNK        -0.4279 
     65 CA         34.0403   27.6121    6.7187 C.3       11 UNK         0.1003 
     66 C          34.5571   26.7322    7.8881 C.2       11 UNK         0.5709 
     67 N          33.6964   25.9075    8.4696 N.am      11 UNK        -0.7358 
     68 O          35.7138   26.8176    8.2985 O.2       11 UNK        -0.4999 
     69 C69        33.3265   28.8856    7.2501 C.3       12 UNK        -0.0954 
     70 S70        32.7693   30.0166    5.9263 S.3       12 UNK        -0.2268 
     71 C71        31.0270   29.5247    5.7059 C.3       12 UNK         0.0203 
     72 H72        31.5977   20.4602    0.9919 H         1 UNK         0.0888 
     73 H73        32.7183   21.5317    0.1487 H         1 UNK         0.0888 
     74 H74        32.6511   21.5384    1.9118 H         1 UNK         0.0888 
     75 H75        31.7049   23.2899   -0.7338 H         1 UNK         0.3017 
     76 H76        30.3318   24.9348   -1.2238 H         1 UNK         0.0873 
     77 H77        29.7977   25.2952    1.7496 H         1 UNK         0.0745 
     78 H78        29.5278   26.4771    0.5064 H         1 UNK         0.0745 
     79 H79        32.3704   24.6359    2.6248 H         1 UNK         0.0705 
     80 H80        33.3948   26.0394    2.7829 H         1 UNK         0.0705 
     81 H81        32.4102   28.2110    3.7132 H         1 UNK         0.1334 
     82 H82        29.1859   27.6956    6.4943 H         1 UNK         0.1417 
     83 H83        30.3210   24.4742    3.9081 H         1 UNK         0.1562 
     84 H84        28.0546   25.5978    6.6873 H         1 UNK         0.0748 
     85 H85        28.8550   24.1728    6.0743 H         1 UNK         0.0748 
     86 H86        27.2259   27.3184    4.8502 H         1 UNK         0.0940 
     87 H87        25.6042   26.7836    4.5773 H         1 UNK         0.0940 
     88 H88        27.7544   26.7385    2.3935 H         1 UNK         0.0703 
     89 H89        26.2384   25.6503    1.2038 H         1 UNK         0.3081 
     90 H90        23.5017   24.6460    1.3119 H         1 UNK         0.0719 
     91 H91        22.3502   27.2462    0.1713 H         1 UNK         0.0809 
     92 H92        21.6814   25.6367   -0.0961 H         1 UNK         0.0809 
     93 H93        21.6910   26.3242    1.5166 H         1 UNK         0.0809 
     94 H94        24.2638   24.4016   -0.7638 H         1 UNK         0.2990 
     95 H95        24.4437   25.2995   -3.1419 H         1 UNK         0.0690 
     96 H96        26.2302   26.3427   -4.5219 H         1 UNK         0.0788 
     97 H97        26.8799   27.1621   -3.1008 H         1 UNK         0.0788 
     98 H98        25.2819   27.5741   -3.7065 H         1 UNK         0.0788 
     99 H99        27.2619   24.7971   -2.5909 H         1 UNK         0.2993 
    100 H100       26.8606   21.8362   -0.8243 H         1 UNK         0.0949 
    101 H101       28.1645   20.6531   -2.5698 H         1 UNK         0.0767 
    102 H102       26.5044   20.8486   -3.1026 H         1 UNK         0.0767 
    103 H103       27.7580   21.8926   -3.7585 H         1 UNK         0.0767 
    104 H104       29.2346   22.7692   -1.8951 H         1 UNK         0.3013 
    105 H105       26.1900   28.3203    0.5217 H         1 UNK         0.3121 
    106 H106       25.7647   30.9390    1.6220 H         1 UNK         0.0774 
    107 H107       25.3965   31.5605   -0.7582 H         1 UNK         0.0815 
    108 H108       26.0488   30.0149   -1.2847 H         1 UNK         0.0815 
    109 H109       24.5451   30.0773   -0.3655 H         1 UNK         0.0815 
    110 H110       28.6908   29.4239    1.0457 H         1 UNK         0.2987 
    111 H111       30.2694   31.5635   -0.0756 H         1 UNK         0.0949 
    112 H112       31.0933   29.0895    1.5477 H         1 UNK         0.0806 
    113 H113       30.8904   29.1190   -0.2041 H         1 UNK         0.0806 
    114 H114       32.1649   30.0568    0.5492 H         1 UNK         0.0806 
    115 H115       32.2069   32.4146    1.1210 H         1 UNK         0.3010 
    116 H116       31.8128   32.9180    4.0211 H         1 UNK         0.0829 
    117 H117       30.8673   34.8960    2.7951 H         1 UNK         0.0813 
    118 H118       32.3147   35.3220    3.6905 H         1 UNK         0.0813 
    119 H119       32.3996   35.1023    1.9468 H         1 UNK         0.0813 
    120 H120       33.5052   31.0097    2.5907 H         1 UNK         0.3038 
    121 H121       36.0230   31.6286    3.8253 H         1 UNK         0.0769 
    122 H122       37.3661   31.2897    1.7176 H         1 UNK         0.0811 
    123 H123       36.3930   32.7459    1.5992 H         1 UNK         0.0811 
    124 H124       35.8881   31.2774    0.7646 H         1 UNK         0.0811 
    125 H125       37.2873   29.7046    3.9739 H         1 UNK         0.3204 
    126 H126       37.6611   27.5807    4.4429 H         1 UNK         0.0748 
    127 H127       37.1033   25.8358    2.8037 H         1 UNK         0.0771 
    128 H128       35.8759   26.8500    2.0627 H         1 UNK         0.0771 
    129 H129       37.5789   27.2922    1.9480 H         1 UNK         0.0771 
    130 H130       35.3892   28.9093    5.7422 H         1 UNK         0.2980 
    131 H131       33.3022   27.0118    6.1870 H         1 UNK         0.0545 
    132 H132       32.7436   25.8375    8.1481 H         1 UNK         0.3459 
    133 H133       34.0083   25.3383    9.2408 H         1 UNK         0.3459 
    134 H134       32.4685   28.6130    7.8672 H         1 UNK         0.0616 
    135 H135       33.9980   29.4509    7.8989 H         1 UNK         0.0616 
    136 H136       30.5595   30.2114    5.0023 H         1 UNK         0.0634 
    137 H137       30.5084   29.6596    6.6562 H         1 UNK         0.0634 
@<TRIPOS>BOND
     1    1    2 1    
     2    1   72 1    
     3    1   73 1    
     4    1   74 1    
     5    2    3 2    
     6    2    4 am   BACKBONE|DICT|INTERRES
     7    4    5 1    
     8    4   75 1    
     9    5    6 1    
    10    5   35 1    
    11    5   76 1    
    12    6    7 1    
    13    6   77 1    
    14    6   78 1    
    15    7    8 1    
    16    8    9 1    
    17    8   79 1    
    18    8   80 1    
    19    9   10 ar   
    20    9   14 ar   
    21   10   11 ar   
    22   10   81 1    
    23   11   12 ar   
    24   11   71 1    
    25   12   13 ar   
    26   12   82 1    
    27   13   14 ar   
    28   13   15 1    
    29   14   83 1    
    30   15   16 1    
    31   15   84 1    
    32   15   85 1    
    33   16   17 1    
    34   17   18 1    
    35   17   86 1    
    36   17   87 1    
    37   18   19 1    
    38   18   37 1    
    39   18   88 1    
    40   19   20 am   BACKBONE|DICT|INTERRES
    41   19   89 1    
    42   20   21 2    
    43   20   22 1    
    44   22   23 1    
    45   22   24 1    
    46   22   90 1    
    47   23   91 1    
    48   23   92 1    
    49   23   93 1    
    50   24   25 am   BACKBONE|DICT|INTERRES
    51   24   94 1    
    52   25   26 2    
    53   25   27 1    
    54   27   28 1    
    55   27   29 1    
    56   27   95 1    
    57   28   96 1    
    58   28   97 1    
    59   28   98 1    
    60   29   30 am   BACKBONE|DICT|INTERRES
    61   29   99 1    
    62   30   31 2    
    63   30   32 1    
    64   32   33 1    
    65   32   34 1    
    66   32  100 1    
    67   33  101 1    
    68   33  102 1    
    69   33  103 1    
    70   34   35 am   BACKBONE|DICT|INTERRES
    71   34  104 1    
    72   35   36 2    
    73   37   38 2    
    74   37   39 am   BACKBONE|DICT|INTERRES
    75   39   40 1    
    76   39  105 1    
    77   40   41 1    
    78   40   42 1    
    79   40  106 1    
    80   41  107 1    
    81   41  108 1    
    82   41  109 1    
    83   42   43 2    
    84   42   44 am   BACKBONE|DICT|INTERRES
    85   44   45 1    
    86   44  110 1    
    87   45   46 1    
    88   45   47 1    
    89   45  111 1    
    90   46  112 1    
    91   46  113 1    
    92   46  114 1    
    93   47   48 2    
    94   47   49 am   BACKBONE|DICT|INTERRES
    95   49   50 1    
    96   49  115 1    
    97   50   51 1    
    98   50   52 1    
    99   50  116 1    
   100   51  117 1    
   101   51  118 1    
   102   51  119 1    
   103   52   53 2    
   104   52   54 am   BACKBONE|DICT|INTERRES
   105   54   55 1    
   106   54  120 1    
   107   55   56 1    
   108   55   57 1    
   109   55  121 1    
   110   56  122 1    
   111   56  123 1    
   112   56  124 1    
   113   57   58 2    
   114   57   59 am   BACKBONE|DICT|INTERRES
   115   59   60 1    
   116   59  125 1    
   117   60   61 1    
   118   60   62 1    
   119   60  126 1    
   120   61  127 1    
   121   61  128 1    
   122   61  129 1    
   123   62   63 2    
   124   62   64 am   BACKBONE|DICT|INTERRES
   125   64   65 1    
   126   64  130 1    
   127   65   66 1    
   128   65   69 1    
   129   65  131 1    
   130   66   67 am   BACKBONE|DICT|INTERRES
   131   66   68 2    
   132   67  132 1    
   133   67  133 1    
   134   69   70 1    
   135   69  134 1    
   136   69  135 1    
   137   70   71 1    
   138   71  136 1    
   139   71  137 1    
@<TRIPOS>SUBSTRUCTURE
     1 UNK         1 GROUP             0       ****    0 ROOT    
