@<TRIPOS>MOLECULE
3R136
137   139    1
SMALL
USER_CHARGES


@<TRIPOS>ATOM
      1 CA         25.3558   20.7445    2.9469 C.3       0 UNK        -0.1979 
      2 C          25.9774   21.8292    2.0807 C.2       0 UNK         0.4864 
      3 O          25.4975   22.0740    0.9728 O.2       0 UNK        -0.5359 
      4 N          27.0316   22.4901    2.5838 N.am      1 UNK        -0.4318 
      5 CA         27.8077   23.5357    1.8983 C.3       1 UNK         0.0824 
      6 C6         28.9464   24.0920    2.7848 C.3       12 UNK        -0.0944 
      7 S7         30.1305   22.8145    3.3271 S.3       12 UNK        -0.2672 
      8 C8         31.5149   23.0388    2.1584 C.3       12 UNK         0.0333 
      9 C9         32.0896   24.4516    2.1686 C.ar      12 UNK        -0.0807 
     10 C10        32.5340   25.0330    3.3615 C.ar      12 UNK        -0.0894 
     11 C11        33.0346   26.3377    3.3710 C.ar      12 UNK        -0.0804 
     12 C12        33.1082   27.0544    2.1737 C.ar      12 UNK        -0.0824 
     13 C13        32.6757   26.4844    0.9753 C.ar      12 UNK        -0.0762 
     14 C14        32.1678   25.1820    0.9777 C.ar      12 UNK        -0.0782 
     15 C15        32.7562   27.2838   -0.3168 C.3       12 UNK         0.0230 
     16 S16        31.3747   28.4601   -0.4633 S.3       12 UNK        -0.2608 
     17 C17        29.9610   27.3209   -0.6475 C.3       12 UNK        -0.0989 
     18 CA         28.7193   27.9689   -1.3159 C.3       5 UNK         0.0716 
     19 N          27.8257   26.9221   -1.8048 N.am      5 UNK        -0.4135 
     20 C          27.5988   26.6133   -3.0841 C.2       4 UNK         0.5031 
     21 O          28.0782   27.2371   -4.0322 O.2       4 UNK        -0.5229 
     22 CA         26.7142   25.3905   -3.3767 C.3       4 UNK         0.0329 
     23 CB         27.5914   24.1443   -3.5865 C.3       4 UNK        -0.2001 
     24 N          25.7346   25.1047   -2.3212 N.am      4 UNK        -0.4303 
     25 C          24.4179   24.9534   -2.5321 C.2       3 UNK         0.5044 
     26 O          23.8773   25.1217   -3.6264 O.2       3 UNK        -0.5152 
     27 CA         23.5404   24.5091   -1.3453 C.3       3 UNK         0.0319 
     28 CB         23.2295   23.0069   -1.4465 C.3       3 UNK        -0.2001 
     29 N          24.1392   24.7844   -0.0390 N.am      3 UNK        -0.4354 
     30 C          24.1891   26.0010    0.5244 C.2       2 UNK         0.4964 
     31 O          23.6570   26.9962    0.0316 O.2       2 UNK        -0.5047 
     32 CA         24.9517   26.1456    1.8576 C.3       2 UNK         0.0288 
     33 CB         23.9636   26.2606    3.0301 C.3       2 UNK        -0.2113 
     34 N          25.9069   25.0719    2.1507 N.am      2 UNK        -0.4145 
     35 C          26.9461   24.7060    1.3850 C.2       1 UNK         0.5006 
     36 O          27.2139   25.2197    0.2985 O.2       1 UNK        -0.5103 
     37 C          27.9479   28.8607   -0.3259 C.2       5 UNK         0.5055 
     38 O          26.8675   28.4895    0.1365 O.2       5 UNK        -0.5220 
     39 N          28.5444   30.0075    0.0245 N.am      6 UNK        -0.4450 
     40 CA         28.1109   30.8511    1.1430 C.3       6 UNK         0.0367 
     41 CB         28.8077   32.2179    1.0497 C.3       6 UNK        -0.1929 
     42 C          28.3785   30.1966    2.5141 C.2       6 UNK         0.5070 
     43 O          27.6610   30.4963    3.4691 O.2       6 UNK        -0.5237 
     44 N          29.3829   29.3052    2.5663 N.am      7 UNK        -0.4739 
     45 CA         29.8312   28.5183    3.7210 C.3       7 UNK         0.0276 
     46 CB         28.7120   27.5591    4.1852 C.3       7 UNK        -0.1927 
     47 C          30.4019   29.3874    4.8622 C.2       7 UNK         0.5013 
     48 O          30.7132   30.5626    4.6481 O.2       7 UNK        -0.5193 
     49 N          30.5705   28.7777    6.0463 N.am      8 UNK        -0.4253 
     50 CA         31.0632   29.3761    7.2940 C.3       8 UNK         0.0242 
     51 CB         29.9675   30.2693    7.9201 C.3       8 UNK        -0.2000 
     52 C          32.4175   30.0892    7.1106 C.2       8 UNK         0.4948 
     53 O          33.4397   29.4170    6.9737 O.2       8 UNK        -0.5275 
     54 N          32.3990   31.4285    7.0789 N.am      9 UNK        -0.4246 
     55 CA         33.5632   32.2902    6.8663 C.3       9 UNK         0.0261 
     56 CB         33.1570   33.7527    7.1099 C.3       9 UNK        -0.1959 
     57 C          34.2224   32.1410    5.4823 C.2       9 UNK         0.5033 
     58 O          35.4023   32.4722    5.3566 O.2       9 UNK        -0.5390 
     59 N          33.4883   31.6291    4.4800 N.am      10 UNK        -0.4215 
     60 CA         33.9612   31.4365    3.1013 C.3       10 UNK         0.0240 
     61 CB         32.7807   31.0138    2.2110 C.3       10 UNK        -0.1982 
     62 C          35.1420   30.4564    2.9403 C.2       10 UNK         0.4970 
     63 O          35.7769   30.4670    1.8852 O.2       10 UNK        -0.4916 
     64 N          35.4210   29.6464    3.9680 N.am      11 UNK        -0.4279 
     65 CA         36.5839   28.7537    4.0625 C.3       11 UNK         0.1003 
     66 C          37.4669   29.0418    5.3121 C.2       11 UNK         0.5709 
     67 N          37.3097   30.1756    5.9884 N.am      11 UNK        -0.7358 
     68 O          38.3334   28.2429    5.6602 O.2       11 UNK        -0.4999 
     69 C69        36.1882   27.2617    3.8808 C.3       12 UNK        -0.0954 
     70 S70        35.1366   26.5595    5.2016 S.3       12 UNK        -0.2268 
     71 C71        33.4473   26.9943    4.6790 C.3       12 UNK         0.0203 
     72 H72        25.3955   19.7857    2.4309 H         1 UNK         0.0888 
     73 H73        24.3113   20.9796    3.1495 H         1 UNK         0.0888 
     74 H74        25.8717   20.6382    3.9010 H         1 UNK         0.0888 
     75 H75        27.3853   22.2271    3.4931 H         1 UNK         0.3017 
     76 H76        28.2569   23.0697    1.0187 H         1 UNK         0.0873 
     77 H77        29.4809   24.8900    2.2671 H         1 UNK         0.0745 
     78 H78        28.5327   24.5500    3.6849 H         1 UNK         0.0745 
     79 H79        32.3078   22.3346    2.4137 H         1 UNK         0.0705 
     80 H80        31.1710   22.7658    1.1595 H         1 UNK         0.0705 
     81 H81        32.4708   24.4757    4.2863 H         1 UNK         0.1334 
     82 H82        33.4984   28.0615    2.1718 H         1 UNK         0.1417 
     83 H83        31.8273   24.7399    0.0513 H         1 UNK         0.1562 
     84 H84        32.7704   26.6221   -1.1843 H         1 UNK         0.0748 
     85 H85        33.6950   27.8393   -0.3436 H         1 UNK         0.0748 
     86 H86        29.7104   26.8897    0.3247 H         1 UNK         0.0940 
     87 H87        30.3004   26.4841   -1.2605 H         1 UNK         0.0940 
     88 H88        29.0410   28.5990   -2.1479 H         1 UNK         0.0703 
     89 H89        27.3903   26.3763   -1.0643 H         1 UNK         0.3081 
     90 H90        26.2051   25.6030   -4.3190 H         1 UNK         0.0719 
     91 H91        28.1286   23.8723   -2.6768 H         1 UNK         0.0809 
     92 H92        26.9921   23.2860   -3.8908 H         1 UNK         0.0809 
     93 H93        28.3339   24.3133   -4.3677 H         1 UNK         0.0809 
     94 H94        26.0954   24.9698   -1.3829 H         1 UNK         0.2990 
     95 H95        22.5959   25.0532   -1.4143 H         1 UNK         0.0690 
     96 H96        22.5729   22.6811   -0.6396 H         1 UNK         0.0788 
     97 H97        24.1375   22.4039   -1.4040 H         1 UNK         0.0788 
     98 H98        22.7276   22.7741   -2.3867 H         1 UNK         0.0788 
     99 H99        24.5946   24.0054    0.4243 H         1 UNK         0.2993 
    100 H100       25.5192   27.0755    1.8015 H         1 UNK         0.0949 
    101 H101       23.2544   27.0733    2.8657 H         1 UNK         0.0767 
    102 H102       23.3856   25.3448    3.1613 H         1 UNK         0.0767 
    103 H103       24.4807   26.4714    3.9666 H         1 UNK         0.0767 
    104 H104       25.7579   24.5644    3.0107 H         1 UNK         0.3013 
    105 H105       29.4332   30.2346   -0.4008 H         1 UNK         0.3121 
    106 H106       27.0335   31.0091    1.0580 H         1 UNK         0.0774 
    107 H107       28.5527   32.7308    0.1222 H         1 UNK         0.0815 
    108 H108       29.8926   32.1229    1.0944 H         1 UNK         0.0815 
    109 H109       28.5036   32.8668    1.8723 H         1 UNK         0.0815 
    110 H110       29.9213   29.1726    1.7221 H         1 UNK         0.2987 
    111 H111       30.6574   27.9088    3.3564 H         1 UNK         0.0949 
    112 H112       27.9246   28.0869    4.7249 H         1 UNK         0.0806 
    113 H113       28.2476   27.0572    3.3363 H         1 UNK         0.0806 
    114 H114       29.0983   26.7804    4.8430 H         1 UNK         0.0806 
    115 H115       30.3217   27.8010    6.1102 H         1 UNK         0.3010 
    116 H116       31.2490   28.5518    7.9845 H         1 UNK         0.0829 
    117 H117       29.0814   29.6824    8.1622 H         1 UNK         0.0813 
    118 H118       30.3103   30.7237    8.8509 H         1 UNK         0.0813 
    119 H119       29.6516   31.0710    7.2514 H         1 UNK         0.0813 
    120 H120       31.5036   31.8886    7.1591 H         1 UNK         0.3038 
    121 H121       34.3145   32.0158    7.6099 H         1 UNK         0.0769 
    122 H122       32.3877   34.0801    6.4093 H         1 UNK         0.0811 
    123 H123       34.0116   34.4205    6.9904 H         1 UNK         0.0811 
    124 H124       32.7760   33.8969    8.1211 H         1 UNK         0.0811 
    125 H125       32.5232   31.3653    4.6670 H         1 UNK         0.3204 
    126 H126       34.3148   32.4071    2.7475 H         1 UNK         0.0748 
    127 H127       31.9824   31.7548    2.2399 H         1 UNK         0.0771 
    128 H128       33.0873   30.9083    1.1692 H         1 UNK         0.0771 
    129 H129       32.3591   30.0598    2.5243 H         1 UNK         0.0771 
    130 H130       34.8603   29.7090    4.8071 H         1 UNK         0.2980 
    131 H131       37.2582   28.9838    3.2361 H         1 UNK         0.0545 
    132 H132       37.8968   30.3496    6.7884 H         1 UNK         0.3459 
    133 H133       36.6543   30.8857    5.6834 H         1 UNK         0.3459 
    134 H134       35.7065   27.1223    2.9144 H         1 UNK         0.0616 
    135 H135       37.0903   26.6500    3.8298 H         1 UNK         0.0616 
    136 H136       33.3497   28.0766    4.6052 H         1 UNK         0.0634 
    137 H137       32.7584   26.6909    5.4684 H         1 UNK         0.0634 
@<TRIPOS>BOND
     1    1    2 1    
     2    1   72 1    
     3    1   73 1    
     4    1   74 1    
     5    2    3 2    
     6    2    4 am   BACKBONE|DICT|INTERRES
     7    4    5 1    
     8    4   75 1    
     9    5    6 1    
    10    5   35 1    
    11    5   76 1    
    12    6    7 1    
    13    6   77 1    
    14    6   78 1    
    15    7    8 1    
    16    8    9 1    
    17    8   79 1    
    18    8   80 1    
    19    9   10 ar   
    20    9   14 ar   
    21   10   11 ar   
    22   10   81 1    
    23   11   12 ar   
    24   11   71 1    
    25   12   13 ar   
    26   12   82 1    
    27   13   14 ar   
    28   13   15 1    
    29   14   83 1    
    30   15   16 1    
    31   15   84 1    
    32   15   85 1    
    33   16   17 1    
    34   17   18 1    
    35   17   86 1    
    36   17   87 1    
    37   18   19 1    
    38   18   37 1    
    39   18   88 1    
    40   19   20 am   BACKBONE|DICT|INTERRES
    41   19   89 1    
    42   20   21 2    
    43   20   22 1    
    44   22   23 1    
    45   22   24 1    
    46   22   90 1    
    47   23   91 1    
    48   23   92 1    
    49   23   93 1    
    50   24   25 am   BACKBONE|DICT|INTERRES
    51   24   94 1    
    52   25   26 2    
    53   25   27 1    
    54   27   28 1    
    55   27   29 1    
    56   27   95 1    
    57   28   96 1    
    58   28   97 1    
    59   28   98 1    
    60   29   30 am   BACKBONE|DICT|INTERRES
    61   29   99 1    
    62   30   31 2    
    63   30   32 1    
    64   32   33 1    
    65   32   34 1    
    66   32  100 1    
    67   33  101 1    
    68   33  102 1    
    69   33  103 1    
    70   34   35 am   BACKBONE|DICT|INTERRES
    71   34  104 1    
    72   35   36 2    
    73   37   38 2    
    74   37   39 am   BACKBONE|DICT|INTERRES
    75   39   40 1    
    76   39  105 1    
    77   40   41 1    
    78   40   42 1    
    79   40  106 1    
    80   41  107 1    
    81   41  108 1    
    82   41  109 1    
    83   42   43 2    
    84   42   44 am   BACKBONE|DICT|INTERRES
    85   44   45 1    
    86   44  110 1    
    87   45   46 1    
    88   45   47 1    
    89   45  111 1    
    90   46  112 1    
    91   46  113 1    
    92   46  114 1    
    93   47   48 2    
    94   47   49 am   BACKBONE|DICT|INTERRES
    95   49   50 1    
    96   49  115 1    
    97   50   51 1    
    98   50   52 1    
    99   50  116 1    
   100   51  117 1    
   101   51  118 1    
   102   51  119 1    
   103   52   53 2    
   104   52   54 am   BACKBONE|DICT|INTERRES
   105   54   55 1    
   106   54  120 1    
   107   55   56 1    
   108   55   57 1    
   109   55  121 1    
   110   56  122 1    
   111   56  123 1    
   112   56  124 1    
   113   57   58 2    
   114   57   59 am   BACKBONE|DICT|INTERRES
   115   59   60 1    
   116   59  125 1    
   117   60   61 1    
   118   60   62 1    
   119   60  126 1    
   120   61  127 1    
   121   61  128 1    
   122   61  129 1    
   123   62   63 2    
   124   62   64 am   BACKBONE|DICT|INTERRES
   125   64   65 1    
   126   64  130 1    
   127   65   66 1    
   128   65   69 1    
   129   65  131 1    
   130   66   67 am   BACKBONE|DICT|INTERRES
   131   66   68 2    
   132   67  132 1    
   133   67  133 1    
   134   69   70 1    
   135   69  134 1    
   136   69  135 1    
   137   70   71 1    
   138   71  136 1    
   139   71  137 1    
@<TRIPOS>SUBSTRUCTURE
     1 UNK         1 GROUP             0       ****    0 ROOT    
