@<TRIPOS>MOLECULE
3R136
137   139    1
SMALL
USER_CHARGES


@<TRIPOS>ATOM
      1 CA         28.3732   24.1686    6.9246 C.3       0 UNK        -0.1979 
      2 C          28.6241   24.0070    5.4329 C.2       0 UNK         0.4864 
      3 O          28.3656   24.9341    4.6693 O.2       0 UNK        -0.5359 
      4 N          29.1214   22.8346    5.0197 N.am      1 UNK        -0.4318 
      5 CA         29.4123   22.4289    3.6405 C.3       1 UNK         0.0824 
      6 C6         30.5094   23.2829    2.9459 C.3       12 UNK        -0.0944 
      7 S7         31.3122   22.3496    1.5978 S.3       12 UNK        -0.2672 
      8 C8         30.9515   23.3989    0.1456 C.3       12 UNK         0.0333 
      9 C9         31.8637   24.6148   -0.0454 C.ar      12 UNK        -0.0807 
     10 C10        32.9814   24.8649    0.7608 C.ar      12 UNK        -0.0894 
     11 C11        33.7914   25.9806    0.5396 C.ar      12 UNK        -0.0804 
     12 C12        33.4805   26.8618   -0.5009 C.ar      12 UNK        -0.0824 
     13 C13        32.3773   26.6218   -1.3279 C.ar      12 UNK        -0.0762 
     14 C14        31.5817   25.4954   -1.0948 C.ar      12 UNK        -0.0782 
     15 C15        32.0856   27.5416   -2.5092 C.3       12 UNK         0.0230 
     16 S16        30.8798   28.8535   -2.1187 S.3       12 UNK        -0.2608 
     17 C17        29.2741   27.9985   -2.3339 C.3       12 UNK        -0.0989 
     18 CA         28.3209   28.0996   -1.1089 C.3       5 UNK         0.0716 
     19 N          27.0431   27.4371   -1.3430 N.am      5 UNK        -0.4135 
     20 C          26.0796   27.8746   -2.1605 C.2       4 UNK         0.5031 
     21 O          26.1581   28.9131   -2.8182 O.2       4 UNK        -0.5229 
     22 CA         24.8131   27.0098   -2.2798 C.3       4 UNK         0.0329 
     23 CB         24.9849   25.9616   -3.3915 C.3       4 UNK        -0.2001 
     24 N          24.4411   26.3352   -1.0341 N.am      4 UNK        -0.4303 
     25 C          23.9374   26.9454    0.0494 C.2       3 UNK         0.5044 
     26 O          23.7443   28.1592    0.1249 O.2       3 UNK        -0.5152 
     27 CA         23.5697   26.0486    1.2469 C.3       3 UNK         0.0319 
     28 CB         22.0737   25.6954    1.2136 C.3       3 UNK        -0.2001 
     29 N          24.3573   24.8124    1.2945 N.am      3 UNK        -0.4354 
     30 C          25.6393   24.7602    1.6775 C.2       2 UNK         0.4964 
     31 O          26.2659   25.7326    2.1008 O.2       2 UNK        -0.5047 
     32 CA         26.3364   23.4056    1.5147 C.3       2 UNK         0.0288 
     33 CB         26.7194   23.1614    0.0410 C.3       2 UNK        -0.2113 
     34 N          27.5339   23.3701    2.3483 N.am      2 UNK        -0.4145 
     35 C          28.1311   22.2602    2.7960 C.2       1 UNK         0.5006 
     36 O          27.7070   21.1238    2.5740 O.2       1 UNK        -0.5103 
     37 C          28.9291   27.4694    0.1506 C.2       5 UNK         0.5055 
     38 O          28.8105   26.2578    0.3423 O.2       5 UNK        -0.5220 
     39 N          29.6091   28.3036    0.9400 N.am      6 UNK        -0.4450 
     40 CA         30.4897   27.9141    2.0363 C.3       6 UNK         0.0367 
     41 CB         29.6728   27.6931    3.3220 C.3       6 UNK        -0.1929 
     42 C          31.5682   28.9973    2.1875 C.2       6 UNK         0.5070 
     43 O          31.8697   29.4153    3.3085 O.2       6 UNK        -0.5237 
     44 N          32.0705   29.4911    1.0437 N.am      7 UNK        -0.4739 
     45 CA         32.8557   30.7207    0.8836 C.3       7 UNK         0.0276 
     46 CB         34.2657   30.5643    1.4947 C.3       7 UNK        -0.1927 
     47 C          32.0590   31.9325    1.4078 C.2       7 UNK         0.5013 
     48 O          30.8510   32.0025    1.1667 O.2       7 UNK        -0.5193 
     49 N          32.7039   32.8338    2.1584 N.am      8 UNK        -0.4253 
     50 CA         32.0654   33.9560    2.8554 C.3       8 UNK         0.0242 
     51 CB         33.1038   35.0790    3.0415 C.3       8 UNK        -0.2000 
     52 C          31.4259   33.5086    4.1888 C.2       8 UNK         0.4948 
     53 O          31.6715   34.1328    5.2225 O.2       8 UNK        -0.5275 
     54 N          30.6451   32.4165    4.1404 N.am      9 UNK        -0.4246 
     55 CA         30.0314   31.6947    5.2649 C.3       9 UNK         0.0261 
     56 CB         28.8921   32.5278    5.8892 C.3       9 UNK        -0.1959 
     57 C          31.0772   31.2271    6.2989 C.2       9 UNK         0.5033 
     58 O          30.8940   31.4275    7.5020 O.2       9 UNK        -0.5390 
     59 N          32.1713   30.6434    5.7957 N.am      10 UNK        -0.4215 
     60 CA         33.3589   30.2692    6.5641 C.3       10 UNK         0.0240 
     61 CB         34.5747   31.0144    5.9874 C.3       10 UNK        -0.1982 
     62 C          33.6159   28.7559    6.5576 C.2       10 UNK         0.4970 
     63 O          34.1880   28.2524    7.5251 O.2       10 UNK        -0.4916 
     64 N          33.2119   28.0562    5.4886 N.am      11 UNK        -0.4279 
     65 CA         33.4557   26.6132    5.3072 C.3       11 UNK         0.1003 
     66 C          32.4863   25.6876    6.0999 C.2       11 UNK         0.5709 
     67 N          31.4899   26.2107    6.8041 N.am      11 UNK        -0.7358 
     68 O          32.6523   24.4705    6.0907 O.2       11 UNK        -0.4999 
     69 C69        33.5219   26.2154    3.8096 C.3       12 UNK        -0.0954 
     70 S70        34.6977   27.2355    2.8554 S.3       12 UNK        -0.2268 
     71 C71        35.0286   26.1960    1.4011 C.3       12 UNK         0.0203 
     72 H72        28.6668   25.1655    7.2513 H         1 UNK         0.0888 
     73 H73        27.3128   24.0412    7.1403 H         1 UNK         0.0888 
     74 H74        28.9336   23.4407    7.5111 H         1 UNK         0.0888 
     75 H75        29.2864   22.1146    5.7096 H         1 UNK         0.3017 
     76 H76        29.8230   21.4240    3.7554 H         1 UNK         0.0873 
     77 H77        31.2897   23.5378    3.6648 H         1 UNK         0.0745 
     78 H78        30.1212   24.2373    2.5839 H         1 UNK         0.0745 
     79 H79        29.9122   23.7273    0.1961 H         1 UNK         0.0705 
     80 H80        31.0313   22.7728   -0.7439 H         1 UNK         0.0705 
     81 H81        33.2434   24.1909    1.5624 H         1 UNK         0.1334 
     82 H82        34.1114   27.7220   -0.6790 H         1 UNK         0.1417 
     83 H83        30.7344   25.2949   -1.7348 H         1 UNK         0.1562 
     84 H84        31.7368   26.9609   -3.3645 H         1 UNK         0.0748 
     85 H85        33.0114   28.0176   -2.8362 H         1 UNK         0.0748 
     86 H86        29.4356   26.9539   -2.6005 H         1 UNK         0.0940 
     87 H87        28.7970   28.4457   -3.2069 H         1 UNK         0.0940 
     88 H88        28.1162   29.1528   -0.9035 H         1 UNK         0.0703 
     89 H89        26.9115   26.5914   -0.8024 H         1 UNK         0.3081 
     90 H90        23.9908   27.6709   -2.5623 H         1 UNK         0.0719 
     91 H91        25.2407   26.4373   -4.3395 H         1 UNK         0.0809 
     92 H92        25.7789   25.2503   -3.1599 H         1 UNK         0.0809 
     93 H93        24.0652   25.3988   -3.5527 H         1 UNK         0.0809 
     94 H94        24.5492   25.3326   -1.0084 H         1 UNK         0.2990 
     95 H95        23.7628   26.6199    2.1578 H         1 UNK         0.0690 
     96 H96        21.7828   25.1173    2.0910 H         1 UNK         0.0788 
     97 H97        21.8129   25.1163    0.3268 H         1 UNK         0.0788 
     98 H98        21.4605   26.5979    1.2050 H         1 UNK         0.0788 
     99 H99        23.9030   23.9689    0.9728 H         1 UNK         0.2993 
    100 H100       25.6478   22.6269    1.8502 H         1 UNK         0.0949 
    101 H101       25.8399   23.1597   -0.6036 H         1 UNK         0.0767 
    102 H102       27.3971   23.9321   -0.3289 H         1 UNK         0.0767 
    103 H103       27.2117   22.1974   -0.0882 H         1 UNK         0.0767 
    104 H104       27.8643   24.2774    2.6689 H         1 UNK         0.3013 
    105 H105       29.6431   29.2853    0.6954 H         1 UNK         0.3121 
    106 H106       30.9944   26.9841    1.7677 H         1 UNK         0.0774 
    107 H107       30.3001   27.3142    4.1292 H         1 UNK         0.0815 
    108 H108       29.2072   28.6157    3.6679 H         1 UNK         0.0815 
    109 H109       28.8793   26.9646    3.1587 H         1 UNK         0.0815 
    110 H110       31.7633   29.0660    0.1780 H         1 UNK         0.2987 
    111 H111       32.9722   30.8769   -0.1900 H         1 UNK         0.0949 
    112 H112       34.8946   31.4284    1.2779 H         1 UNK         0.0806 
    113 H113       34.7736   29.6963    1.0750 H         1 UNK         0.0806 
    114 H114       34.2344   30.4334    2.5763 H         1 UNK         0.0806 
    115 H115       33.6851   32.6868    2.3459 H         1 UNK         0.3010 
    116 H116       31.2597   34.3517    2.2329 H         1 UNK         0.0829 
    117 H117       33.9312   34.7627    3.6781 H         1 UNK         0.0813 
    118 H118       33.5183   35.3991    2.0854 H         1 UNK         0.0813 
    119 H119       32.6521   35.9571    3.5052 H         1 UNK         0.0813 
    120 H120       30.5199   31.9944    3.2263 H         1 UNK         0.3038 
    121 H121       29.5895   30.7894    4.8468 H         1 UNK         0.0769 
    122 H122       28.3667   31.9577    6.6564 H         1 UNK         0.0811 
    123 H123       28.1555   32.8168    5.1397 H         1 UNK         0.0811 
    124 H124       29.2667   33.4374    6.3597 H         1 UNK         0.0811 
    125 H125       32.1787   30.4299    4.7993 H         1 UNK         0.3204 
    126 H126       33.2443   30.5704    7.6075 H         1 UNK         0.0748 
    127 H127       35.4775   30.7898    6.5572 H         1 UNK         0.0771 
    128 H128       34.7651   30.7358    4.9505 H         1 UNK         0.0771 
    129 H129       34.4288   32.0944    6.0227 H         1 UNK         0.0771 
    130 H130       32.7530   28.5290    4.7159 H         1 UNK         0.2980 
    131 H131       34.4438   26.4019    5.7206 H         1 UNK         0.0545 
    132 H132       30.8907   25.6005    7.3336 H         1 UNK         0.3459 
    133 H133       31.3545   27.2076    6.8329 H         1 UNK         0.3459 
    134 H134       33.8242   25.1711    3.7152 H         1 UNK         0.0616 
    135 H135       32.5373   26.2921    3.3505 H         1 UNK         0.0616 
    136 H136       35.4360   25.2384    1.7288 H         1 UNK         0.0634 
    137 H137       35.8116   26.6698    0.8073 H         1 UNK         0.0634 
@<TRIPOS>BOND
     1    1    2 1    
     2    1   72 1    
     3    1   73 1    
     4    1   74 1    
     5    2    3 2    
     6    2    4 am   BACKBONE|DICT|INTERRES
     7    4    5 1    
     8    4   75 1    
     9    5    6 1    
    10    5   35 1    
    11    5   76 1    
    12    6    7 1    
    13    6   77 1    
    14    6   78 1    
    15    7    8 1    
    16    8    9 1    
    17    8   79 1    
    18    8   80 1    
    19    9   10 ar   
    20    9   14 ar   
    21   10   11 ar   
    22   10   81 1    
    23   11   12 ar   
    24   11   71 1    
    25   12   13 ar   
    26   12   82 1    
    27   13   14 ar   
    28   13   15 1    
    29   14   83 1    
    30   15   16 1    
    31   15   84 1    
    32   15   85 1    
    33   16   17 1    
    34   17   18 1    
    35   17   86 1    
    36   17   87 1    
    37   18   19 1    
    38   18   37 1    
    39   18   88 1    
    40   19   20 am   BACKBONE|DICT|INTERRES
    41   19   89 1    
    42   20   21 2    
    43   20   22 1    
    44   22   23 1    
    45   22   24 1    
    46   22   90 1    
    47   23   91 1    
    48   23   92 1    
    49   23   93 1    
    50   24   25 am   BACKBONE|DICT|INTERRES
    51   24   94 1    
    52   25   26 2    
    53   25   27 1    
    54   27   28 1    
    55   27   29 1    
    56   27   95 1    
    57   28   96 1    
    58   28   97 1    
    59   28   98 1    
    60   29   30 am   BACKBONE|DICT|INTERRES
    61   29   99 1    
    62   30   31 2    
    63   30   32 1    
    64   32   33 1    
    65   32   34 1    
    66   32  100 1    
    67   33  101 1    
    68   33  102 1    
    69   33  103 1    
    70   34   35 am   BACKBONE|DICT|INTERRES
    71   34  104 1    
    72   35   36 2    
    73   37   38 2    
    74   37   39 am   BACKBONE|DICT|INTERRES
    75   39   40 1    
    76   39  105 1    
    77   40   41 1    
    78   40   42 1    
    79   40  106 1    
    80   41  107 1    
    81   41  108 1    
    82   41  109 1    
    83   42   43 2    
    84   42   44 am   BACKBONE|DICT|INTERRES
    85   44   45 1    
    86   44  110 1    
    87   45   46 1    
    88   45   47 1    
    89   45  111 1    
    90   46  112 1    
    91   46  113 1    
    92   46  114 1    
    93   47   48 2    
    94   47   49 am   BACKBONE|DICT|INTERRES
    95   49   50 1    
    96   49  115 1    
    97   50   51 1    
    98   50   52 1    
    99   50  116 1    
   100   51  117 1    
   101   51  118 1    
   102   51  119 1    
   103   52   53 2    
   104   52   54 am   BACKBONE|DICT|INTERRES
   105   54   55 1    
   106   54  120 1    
   107   55   56 1    
   108   55   57 1    
   109   55  121 1    
   110   56  122 1    
   111   56  123 1    
   112   56  124 1    
   113   57   58 2    
   114   57   59 am   BACKBONE|DICT|INTERRES
   115   59   60 1    
   116   59  125 1    
   117   60   61 1    
   118   60   62 1    
   119   60  126 1    
   120   61  127 1    
   121   61  128 1    
   122   61  129 1    
   123   62   63 2    
   124   62   64 am   BACKBONE|DICT|INTERRES
   125   64   65 1    
   126   64  130 1    
   127   65   66 1    
   128   65   69 1    
   129   65  131 1    
   130   66   67 am   BACKBONE|DICT|INTERRES
   131   66   68 2    
   132   67  132 1    
   133   67  133 1    
   134   69   70 1    
   135   69  134 1    
   136   69  135 1    
   137   70   71 1    
   138   71  136 1    
   139   71  137 1    
@<TRIPOS>SUBSTRUCTURE
     1 UNK         1 GROUP             0       ****    0 ROOT    
