@<TRIPOS>MOLECULE
3R136
137   139    1
SMALL
USER_CHARGES


@<TRIPOS>ATOM
      1 CA         25.8483   22.7028    4.6422 C.3       0 UNK        -0.1979 
      2 C          26.4123   22.9584    3.2534 C.2       0 UNK         0.4864 
      3 O          25.7957   23.6780    2.4669 O.2       0 UNK        -0.5359 
      4 N          27.5868   22.3891    2.9471 N.am      1 UNK        -0.4318 
      5 CA         28.2790   22.5288    1.6591 C.3       1 UNK         0.0824 
      6 C6         29.5013   21.5817    1.5488 C.3       12 UNK        -0.0944 
      7 S7         30.7892   21.8419    2.8252 S.3       12 UNK        -0.2672 
      8 C8         32.3080   21.9954    1.8280 C.3       12 UNK         0.0333 
      9 C9         32.5147   23.4020    1.2793 C.ar      12 UNK        -0.0807 
     10 C10        33.3269   24.3151    1.9625 C.ar      12 UNK        -0.0894 
     11 C11        33.5596   25.5903    1.4357 C.ar      12 UNK        -0.0804 
     12 C12        32.9595   25.9567    0.2283 C.ar      12 UNK        -0.0824 
     13 C13        32.1345   25.0602   -0.4548 C.ar      12 UNK        -0.0762 
     14 C14        31.9277   23.7810    0.0680 C.ar      12 UNK        -0.0782 
     15 C15        31.4638   25.4739   -1.7547 C.3       12 UNK         0.0230 
     16 S16        30.1759   26.7181   -1.4478 S.3       12 UNK        -0.2608 
     17 C17        29.2221   26.6364   -2.9967 C.3       12 UNK        -0.0989 
     18 CA         27.7683   27.1536   -2.8600 C.3       5 UNK         0.0716 
     19 N          26.9799   26.3678   -1.8975 N.am      5 UNK        -0.4135 
     20 C          25.6600   26.1562   -2.0129 C.2       4 UNK         0.5031 
     21 O          24.9850   26.5564   -2.9626 O.2       4 UNK        -0.5229 
     22 CA         24.9576   25.3938   -0.8749 C.3       4 UNK         0.0329 
     23 CB         25.1518   23.8763   -1.0241 C.3       4 UNK        -0.2001 
     24 N          25.3741   25.8225    0.4625 N.am      4 UNK        -0.4303 
     25 C          25.1879   27.0529    0.9642 C.2       3 UNK         0.5044 
     26 O          24.6388   27.9691    0.3530 O.2       3 UNK        -0.5152 
     27 CA         25.7389   27.3227    2.3736 C.3       3 UNK         0.0319 
     28 CB         24.7337   26.8904    3.4530 C.3       3 UNK        -0.2001 
     29 N          27.0275   26.6671    2.5998 N.am      3 UNK        -0.4354 
     30 C          28.1644   27.0204    1.9827 C.2       2 UNK         0.4964 
     31 O          28.2441   27.9577    1.1922 O.2       2 UNK        -0.5047 
     32 CA         29.4065   26.1635    2.2690 C.3       2 UNK         0.0288 
     33 CB         30.0741   26.6044    3.5799 C.3       2 UNK        -0.2113 
     34 N          29.1019   24.7351    2.3376 N.am      2 UNK        -0.4145 
     35 C          28.6278   23.9943    1.3245 C.2       1 UNK         0.5006 
     36 O          28.4052   24.4275    0.1930 O.2       1 UNK        -0.5103 
     37 C          27.7151   28.6775   -2.5952 C.2       5 UNK         0.5055 
     38 O          28.1872   29.4405   -3.4402 O.2       5 UNK        -0.5220 
     39 N          27.1487   29.0917   -1.4511 N.am      6 UNK        -0.4450 
     40 CA         27.0486   30.4655   -0.9438 C.3       6 UNK         0.0367 
     41 CB         26.1843   31.3480   -1.8700 C.3       6 UNK        -0.1929 
     42 C          28.4241   31.0814   -0.6152 C.2       6 UNK         0.5070 
     43 O          28.6832   32.2417   -0.9420 O.2       6 UNK        -0.5237 
     44 N          29.2754   30.2889    0.0448 N.am      7 UNK        -0.4739 
     45 CA         30.5410   30.7114    0.6432 C.3       7 UNK         0.0276 
     46 CB         31.4962   29.5041    0.6614 C.3       7 UNK        -0.1927 
     47 C          30.3142   31.2662    2.0632 C.2       7 UNK         0.5013 
     48 O          29.1832   31.2757    2.5594 O.2       7 UNK        -0.5193 
     49 N          31.4012   31.7272    2.6973 N.am      8 UNK        -0.4253 
     50 CA         31.4158   32.1939    4.0868 C.3       8 UNK         0.0242 
     51 CB         32.7781   32.8416    4.3880 C.3       8 UNK        -0.2000 
     52 C          31.1328   31.0543    5.0821 C.2       8 UNK         0.4948 
     53 O          31.4714   29.9020    4.8110 O.2       8 UNK        -0.5275 
     54 N          30.5619   31.4057    6.2419 N.am      9 UNK        -0.4246 
     55 CA         30.1473   30.4698    7.2964 C.3       9 UNK         0.0261 
     56 CB         29.3612   31.2431    8.3687 C.3       9 UNK        -0.1959 
     57 C          31.2880   29.6615    7.9479 C.2       9 UNK         0.5033 
     58 O          31.0088   28.6384    8.5753 O.2       9 UNK        -0.5390 
     59 N          32.5348   30.1241    7.7986 N.am      10 UNK        -0.4215 
     60 CA         33.7437   29.4764    8.3029 C.3       10 UNK         0.0240 
     61 CB         34.1695   30.1422    9.6267 C.3       10 UNK        -0.1982 
     62 C          34.8447   29.4965    7.2300 C.2       10 UNK         0.4970 
     63 O          35.9900   29.8323    7.5366 O.2       10 UNK        -0.4916 
     64 N          34.4844   29.1486    5.9860 N.am      11 UNK        -0.4279 
     65 CA         35.4183   29.0462    4.8504 C.3       11 UNK         0.1003 
     66 C          36.4621   27.8920    4.9368 C.2       11 UNK         0.5709 
     67 N          36.2996   26.9095    5.8154 N.am      11 UNK        -0.7358 
     68 O          37.4426   27.8960    4.1963 O.2       11 UNK        -0.4999 
     69 C69        34.6773   29.0546    3.4879 C.3       12 UNK        -0.0954 
     70 S70        33.5182   27.6638    3.2511 S.3       12 UNK        -0.2268 
     71 C71        34.4698   26.5752    2.1513 C.3       12 UNK         0.0203 
     72 H72        24.8786   22.2118    4.5664 H         1 UNK         0.0888 
     73 H73        26.5044   22.0695    5.2390 H         1 UNK         0.0888 
     74 H74        25.7122   23.6458    5.1708 H         1 UNK         0.0888 
     75 H75        28.0578   21.8148    3.6323 H         1 UNK         0.3017 
     76 H76        27.5640   22.2114    0.8965 H         1 UNK         0.0873 
     77 H77        29.9355   21.6435    0.5514 H         1 UNK         0.0745 
     78 H78        29.1607   20.5492    1.6405 H         1 UNK         0.0745 
     79 H79        32.2930   21.2686    1.0144 H         1 UNK         0.0705 
     80 H80        33.1574   21.7197    2.4550 H         1 UNK         0.0705 
     81 H81        33.7888   24.0301    2.8979 H         1 UNK         0.1334 
     82 H82        33.1244   26.9459   -0.1763 H         1 UNK         0.1417 
     83 H83        31.3041   23.0834   -0.4716 H         1 UNK         0.1562 
     84 H84        31.0236   24.6048   -2.2457 H         1 UNK         0.0748 
     85 H85        32.2056   25.8807   -2.4434 H         1 UNK         0.0748 
     86 H86        29.1968   25.6023   -3.3432 H         1 UNK         0.0940 
     87 H87        29.7600   27.1925   -3.7670 H         1 UNK         0.0940 
     88 H88        27.3149   27.0215   -3.8449 H         1 UNK         0.0703 
     89 H89        27.4853   25.9733   -1.1101 H         1 UNK         0.3081 
     90 H90        23.8884   25.6004   -0.9569 H         1 UNK         0.0719 
     91 H91        24.7759   23.5294   -1.9875 H         1 UNK         0.0809 
     92 H92        26.2019   23.5919   -0.9646 H         1 UNK         0.0809 
     93 H93        24.6135   23.3294   -0.2496 H         1 UNK         0.0809 
     94 H94        25.7847   25.1141    1.0643 H         1 UNK         0.2990 
     95 H95        25.8911   28.4003    2.4683 H         1 UNK         0.0690 
     96 H96        25.0967   27.1305    4.4525 H         1 UNK         0.0788 
     97 H97        24.5307   25.8199    3.4172 H         1 UNK         0.0788 
     98 H98        23.7808   27.4052    3.3230 H         1 UNK         0.0788 
     99 H99        27.0297   25.8545    3.1982 H         1 UNK         0.2993 
    100 H100       30.1169   26.3136    1.4543 H         1 UNK         0.0949 
    101 H101       29.4183   26.4671    4.4402 H         1 UNK         0.0767 
    102 H102       30.9909   26.0433    3.7621 H         1 UNK         0.0767 
    103 H103       30.3452   27.6608    3.5413 H         1 UNK         0.0767 
    104 H104       29.2710   24.2734    3.2191 H         1 UNK         0.3013 
    105 H105       26.8242   28.3786   -0.8117 H         1 UNK         0.3121 
    106 H106       26.5240   30.3886    0.0100 H         1 UNK         0.0774 
    107 H107       25.2146   30.8890   -2.0623 H         1 UNK         0.0815 
    108 H108       25.9973   32.3212   -1.4148 H         1 UNK         0.0815 
    109 H109       26.6683   31.5287   -2.8300 H         1 UNK         0.0815 
    110 H110       28.9350   29.3747    0.3424 H         1 UNK         0.2987 
    111 H111       30.9844   31.5030    0.0353 H         1 UNK         0.0949 
    112 H112       31.6549   29.1143   -0.3437 H         1 UNK         0.0806 
    113 H113       32.4767   29.7692    1.0573 H         1 UNK         0.0806 
    114 H114       31.1068   28.6917    1.2764 H         1 UNK         0.0806 
    115 H115       32.2955   31.6631    2.2349 H         1 UNK         0.3010 
    116 H116       30.6355   32.9508    4.1928 H         1 UNK         0.0829 
    117 H117       33.5953   32.1232    4.3161 H         1 UNK         0.0813 
    118 H118       32.9897   33.6605    3.7001 H         1 UNK         0.0813 
    119 H119       32.8006   33.2575    5.3961 H         1 UNK         0.0813 
    120 H120       30.3374   32.3788    6.3950 H         1 UNK         0.3038 
    121 H121       29.4722   29.7446    6.8369 H         1 UNK         0.0769 
    122 H122       29.0049   30.5729    9.1525 H         1 UNK         0.0811 
    123 H123       28.4847   31.7333    7.9444 H         1 UNK         0.0811 
    124 H124       29.9760   32.0058    8.8482 H         1 UNK         0.0811 
    125 H125       32.6703   30.9603    7.2483 H         1 UNK         0.3204 
    126 H126       33.5441   28.4218    8.5041 H         1 UNK         0.0748 
    127 H127       35.0494   29.6539   10.0479 H         1 UNK         0.0771 
    128 H128       34.4131   31.1961    9.4871 H         1 UNK         0.0771 
    129 H129       33.3780   30.0777   10.3736 H         1 UNK         0.0771 
    130 H130       33.5223   28.9041    5.7886 H         1 UNK         0.2980 
    131 H131       36.0149   29.9603    4.8715 H         1 UNK         0.0545 
    132 H132       35.4929   26.8904    6.4172 H         1 UNK         0.3459 
    133 H133       36.9855   26.1732    5.8647 H         1 UNK         0.3459 
    134 H134       34.0938   29.9712    3.4015 H         1 UNK         0.0616 
    135 H135       35.3902   29.0918    2.6627 H         1 UNK         0.0616 
    136 H136       35.0075   27.1719    1.4131 H         1 UNK         0.0634 
    137 H137       35.2263   26.0458    2.7324 H         1 UNK         0.0634 
@<TRIPOS>BOND
     1    1    2 1    
     2    1   72 1    
     3    1   73 1    
     4    1   74 1    
     5    2    3 2    
     6    2    4 am   BACKBONE|DICT|INTERRES
     7    4    5 1    
     8    4   75 1    
     9    5    6 1    
    10    5   35 1    
    11    5   76 1    
    12    6    7 1    
    13    6   77 1    
    14    6   78 1    
    15    7    8 1    
    16    8    9 1    
    17    8   79 1    
    18    8   80 1    
    19    9   10 ar   
    20    9   14 ar   
    21   10   11 ar   
    22   10   81 1    
    23   11   12 ar   
    24   11   71 1    
    25   12   13 ar   
    26   12   82 1    
    27   13   14 ar   
    28   13   15 1    
    29   14   83 1    
    30   15   16 1    
    31   15   84 1    
    32   15   85 1    
    33   16   17 1    
    34   17   18 1    
    35   17   86 1    
    36   17   87 1    
    37   18   19 1    
    38   18   37 1    
    39   18   88 1    
    40   19   20 am   BACKBONE|DICT|INTERRES
    41   19   89 1    
    42   20   21 2    
    43   20   22 1    
    44   22   23 1    
    45   22   24 1    
    46   22   90 1    
    47   23   91 1    
    48   23   92 1    
    49   23   93 1    
    50   24   25 am   BACKBONE|DICT|INTERRES
    51   24   94 1    
    52   25   26 2    
    53   25   27 1    
    54   27   28 1    
    55   27   29 1    
    56   27   95 1    
    57   28   96 1    
    58   28   97 1    
    59   28   98 1    
    60   29   30 am   BACKBONE|DICT|INTERRES
    61   29   99 1    
    62   30   31 2    
    63   30   32 1    
    64   32   33 1    
    65   32   34 1    
    66   32  100 1    
    67   33  101 1    
    68   33  102 1    
    69   33  103 1    
    70   34   35 am   BACKBONE|DICT|INTERRES
    71   34  104 1    
    72   35   36 2    
    73   37   38 2    
    74   37   39 am   BACKBONE|DICT|INTERRES
    75   39   40 1    
    76   39  105 1    
    77   40   41 1    
    78   40   42 1    
    79   40  106 1    
    80   41  107 1    
    81   41  108 1    
    82   41  109 1    
    83   42   43 2    
    84   42   44 am   BACKBONE|DICT|INTERRES
    85   44   45 1    
    86   44  110 1    
    87   45   46 1    
    88   45   47 1    
    89   45  111 1    
    90   46  112 1    
    91   46  113 1    
    92   46  114 1    
    93   47   48 2    
    94   47   49 am   BACKBONE|DICT|INTERRES
    95   49   50 1    
    96   49  115 1    
    97   50   51 1    
    98   50   52 1    
    99   50  116 1    
   100   51  117 1    
   101   51  118 1    
   102   51  119 1    
   103   52   53 2    
   104   52   54 am   BACKBONE|DICT|INTERRES
   105   54   55 1    
   106   54  120 1    
   107   55   56 1    
   108   55   57 1    
   109   55  121 1    
   110   56  122 1    
   111   56  123 1    
   112   56  124 1    
   113   57   58 2    
   114   57   59 am   BACKBONE|DICT|INTERRES
   115   59   60 1    
   116   59  125 1    
   117   60   61 1    
   118   60   62 1    
   119   60  126 1    
   120   61  127 1    
   121   61  128 1    
   122   61  129 1    
   123   62   63 2    
   124   62   64 am   BACKBONE|DICT|INTERRES
   125   64   65 1    
   126   64  130 1    
   127   65   66 1    
   128   65   69 1    
   129   65  131 1    
   130   66   67 am   BACKBONE|DICT|INTERRES
   131   66   68 2    
   132   67  132 1    
   133   67  133 1    
   134   69   70 1    
   135   69  134 1    
   136   69  135 1    
   137   70   71 1    
   138   71  136 1    
   139   71  137 1    
@<TRIPOS>SUBSTRUCTURE
     1 UNK         1 GROUP             0       ****    0 ROOT    
