@<TRIPOS>MOLECULE
3R136
137   139    1
SMALL
USER_CHARGES


@<TRIPOS>ATOM
      1 CA         29.7372   27.2048   -1.0150 C.3       0 UNK        -0.1979 
      2 C          29.1732   25.9037   -0.4700 C.2       0 UNK         0.4864 
      3 O          28.0911   25.9098    0.1181 O.2       0 UNK        -0.5359 
      4 N          29.8983   24.7934   -0.6654 N.am      1 UNK        -0.4318 
      5 CA         29.5581   23.4486   -0.1848 C.3       1 UNK         0.0824 
      6 C6         30.7141   22.4484   -0.4554 C.3       12 UNK        -0.0944 
      7 S7         30.7360   21.0596    0.7249 S.3       12 UNK        -0.2672 
      8 C8         32.0639   21.5735    1.8615 C.3       12 UNK         0.0333 
      9 C9         31.6630   22.7987    2.6691 C.ar      12 UNK        -0.0807 
     10 C10        32.1387   24.0681    2.3222 C.ar      12 UNK        -0.0894 
     11 C11        31.7504   25.1931    3.0554 C.ar      12 UNK        -0.0804 
     12 C12        30.8932   25.0398    4.1478 C.ar      12 UNK        -0.0824 
     13 C13        30.4069   23.7791    4.4987 C.ar      12 UNK        -0.0762 
     14 C14        30.7985   22.6606    3.7587 C.ar      12 UNK        -0.0782 
     15 C15        29.4467   23.6254    5.6663 C.3       12 UNK         0.0230 
     16 S16        27.7168   23.7591    5.1177 S.3       12 UNK        -0.2608 
     17 C17        27.5178   25.5639    4.9043 C.3       12 UNK        -0.0989 
     18 CA         27.5380   26.0317    3.4183 C.3       5 UNK         0.0716 
     19 N          26.6027   25.3061    2.5508 N.am      5 UNK        -0.4135 
     20 C          25.2742   25.2172    2.6921 C.2       4 UNK         0.5031 
     21 O          24.6255   25.8007    3.5632 O.2       4 UNK        -0.5229 
     22 CA         24.5681   24.2850    1.6922 C.3       4 UNK         0.0329 
     23 CB         23.0415   24.1913    1.9082 C.3       4 UNK        -0.2001 
     24 N          24.8968   24.6024    0.2989 N.am      4 UNK        -0.4303 
     25 C          24.5566   25.6989   -0.3982 C.2       3 UNK         0.5044 
     26 O          23.9039   26.6317    0.0701 O.2       3 UNK        -0.5152 
     27 CA         24.9995   25.7683   -1.8763 C.3       3 UNK         0.0319 
     28 CB         25.5796   27.1442   -2.2428 C.3       3 UNK        -0.2001 
     29 N          25.9872   24.7464   -2.2219 N.am      3 UNK        -0.4354 
     30 C          25.7145   23.5100   -2.6584 C.2       2 UNK         0.4964 
     31 O          24.5770   23.0986   -2.8861 O.2       2 UNK        -0.5047 
     32 CA         26.9125   22.5613   -2.8495 C.3       2 UNK         0.0288 
     33 CB         27.2721   22.4427   -4.3396 C.3       2 UNK        -0.2113 
     34 N          28.1091   22.9594   -2.0980 N.am      2 UNK        -0.4145 
     35 C          28.2178   22.9473   -0.7601 C.2       1 UNK         0.5006 
     36 O          27.3017   22.6233   -0.0014 O.2       1 UNK        -0.5103 
     37 C          27.3796   27.5617    3.2770 C.2       5 UNK         0.5055 
     38 O          27.4323   28.2823    4.2761 O.2       5 UNK        -0.5220 
     39 N          27.1766   28.0366    2.0415 N.am      6 UNK        -0.4450 
     40 CA         26.9678   29.4494    1.7261 C.3       6 UNK         0.0367 
     41 CB         25.8522   29.5743    0.6749 C.3       6 UNK        -0.1929 
     42 C          28.2876   30.0754    1.2546 C.2       6 UNK         0.5070 
     43 O          28.5140   30.2032    0.0502 O.2       6 UNK        -0.5237 
     44 N          29.1437   30.4430    2.2115 N.am      7 UNK        -0.4739 
     45 CA         30.4030   31.1499    1.9839 C.3       7 UNK         0.0276 
     46 CB         31.5486   30.1378    1.8140 C.3       7 UNK        -0.1927 
     47 C          30.6739   32.0969    3.1595 C.2       7 UNK         0.5013 
     48 O          30.0359   31.9747    4.2099 O.2       7 UNK        -0.5193 
     49 N          31.6298   33.0086    2.9635 N.am      8 UNK        -0.4253 
     50 CA         32.1232   33.9566    3.9584 C.3       8 UNK         0.0242 
     51 CB         31.5484   35.3520    3.6599 C.3       8 UNK        -0.2000 
     52 C          33.6552   33.9681    3.8993 C.2       8 UNK         0.4948 
     53 O          34.2309   33.5499    2.8906 O.2       8 UNK        -0.5275 
     54 N          34.2873   34.4349    4.9850 N.am      9 UNK        -0.4246 
     55 CA         35.7357   34.5038    5.2453 C.3       9 UNK         0.0261 
     56 CB         36.4768   35.3553    4.1946 C.3       9 UNK        -0.1959 
     57 C          36.4025   33.1273    5.4294 C.2       9 UNK         0.5033 
     58 O          37.1118   32.9338    6.4178 O.2       9 UNK        -0.5390 
     59 N          36.1388   32.1946    4.5099 N.am      10 UNK        -0.4215 
     60 CA         36.4906   30.7816    4.5977 C.3       10 UNK         0.0240 
     61 CB         37.4446   30.4154    3.4482 C.3       10 UNK        -0.1982 
     62 C          35.1838   29.9881    4.5052 C.2       10 UNK         0.4970 
     63 O          34.4385   30.1854    3.5452 O.2       10 UNK        -0.4916 
     64 N          34.9281   29.1463    5.5157 N.am      11 UNK        -0.4279 
     65 CA         33.7418   28.2863    5.7062 C.3       11 UNK         0.1003 
     66 C          32.3377   28.9654    5.6230 C.2       11 UNK         0.5709 
     67 N          32.2364   30.2856    5.7075 N.am      11 UNK        -0.7358 
     68 O          31.3186   28.2864    5.5347 O.2       11 UNK        -0.4999 
     69 C69        33.8459   26.9081    4.9844 C.3       12 UNK        -0.0954 
     70 S70        33.9326   26.9329    3.1584 S.3       12 UNK        -0.2268 
     71 C71        32.2193   26.5816    2.6488 C.3       12 UNK         0.0203 
     72 H72        28.9892   27.7200   -1.6168 H         1 UNK         0.0888 
     73 H73        30.0153   27.8583   -0.1901 H         1 UNK         0.0888 
     74 H74        30.6192   27.0429   -1.6342 H         1 UNK         0.0888 
     75 H75        30.7730   24.8682   -1.1647 H         1 UNK         0.3017 
     76 H76        29.4275   23.5423    0.8960 H         1 UNK         0.0873 
     77 H77        30.6740   22.0454   -1.4692 H         1 UNK         0.0745 
     78 H78        31.6774   22.9562   -0.3934 H         1 UNK         0.0745 
     79 H79        32.2870   20.7484    2.5395 H         1 UNK         0.0705 
     80 H80        32.9798   21.7598    1.2983 H         1 UNK         0.0705 
     81 H81        32.8016   24.1857    1.4760 H         1 UNK         0.1334 
     82 H82        30.5892   25.9082    4.7156 H         1 UNK         0.1417 
     83 H83        30.4172   21.6824    4.0197 H         1 UNK         0.1562 
     84 H84        29.6555   24.3660    6.4401 H         1 UNK         0.0748 
     85 H85        29.5904   22.6510    6.1357 H         1 UNK         0.0748 
     86 H86        28.2930   26.0784    5.4745 H         1 UNK         0.0940 
     87 H87        26.5765   25.8491    5.3771 H         1 UNK         0.0940 
     88 H88        28.5255   25.8081    3.0154 H         1 UNK         0.0703 
     89 H89        27.0254   24.8703    1.7403 H         1 UNK         0.3081 
     90 H90        24.9772   23.2896    1.8735 H         1 UNK         0.0719 
     91 H91        22.8142   23.8266    2.9107 H         1 UNK         0.0809 
     92 H92        22.5522   25.1595    1.8001 H         1 UNK         0.0809 
     93 H93        22.5820   23.5012    1.2007 H         1 UNK         0.0809 
     94 H94        25.4805   23.9177   -0.1658 H         1 UNK         0.2990 
     95 H95        24.1007   25.6173   -2.4777 H         1 UNK         0.0690 
     96 H96        25.8133   27.2031   -3.3059 H         1 UNK         0.0788 
     97 H97        26.4950   27.3506   -1.6892 H         1 UNK         0.0788 
     98 H98        24.8703   27.9442   -2.0270 H         1 UNK         0.0788 
     99 H99        26.9498   24.9802   -2.0256 H         1 UNK         0.2993 
    100 H100       26.6036   21.5770   -2.4903 H         1 UNK         0.0949 
    101 H101       26.4105   22.1173   -4.9248 H         1 UNK         0.0767 
    102 H102       27.6048   23.3961   -4.7524 H         1 UNK         0.0767 
    103 H103       28.0641   21.7108   -4.5003 H         1 UNK         0.0767 
    104 H104       28.9034   23.2642   -2.6421 H         1 UNK         0.3013 
    105 H105       27.2310   27.3891    1.2607 H         1 UNK         0.3121 
    106 H106       26.6342   29.9932    2.6128 H         1 UNK         0.0774 
    107 H107       25.6378   30.6216    0.4591 H         1 UNK         0.0815 
    108 H108       26.1285   29.1013   -0.2649 H         1 UNK         0.0815 
    109 H109       24.9257   29.1158    1.0213 H         1 UNK         0.0815 
    110 H110       28.8856   30.3400    3.1867 H         1 UNK         0.2987 
    111 H111       30.3196   31.7578    1.0799 H         1 UNK         0.0949 
    112 H112       32.4820   30.6385    1.5543 H         1 UNK         0.0806 
    113 H113       31.7298   29.5878    2.7363 H         1 UNK         0.0806 
    114 H114       31.3397   29.4184    1.0238 H         1 UNK         0.0806 
    115 H115       32.1826   32.9743    2.1162 H         1 UNK         0.3010 
    116 H116       31.8217   33.6436    4.9607 H         1 UNK         0.0829 
    117 H117       30.4587   35.3454    3.6955 H         1 UNK         0.0813 
    118 H118       31.8909   36.0851    4.3913 H         1 UNK         0.0813 
    119 H119       31.8483   35.7090    2.6737 H         1 UNK         0.0813 
    120 H120       33.7115   34.7399    5.7586 H         1 UNK         0.3038 
    121 H121       35.8317   35.0228    6.2005 H         1 UNK         0.0769 
    122 H122       36.4657   34.8950    3.2064 H         1 UNK         0.0811 
    123 H123       37.5226   35.4891    4.4740 H         1 UNK         0.0811 
    124 H124       36.0356   36.3480    4.1067 H         1 UNK         0.0811 
    125 H125       35.4995   32.4464    3.7567 H         1 UNK         0.3204 
    126 H126       36.9841   30.5611    5.5467 H         1 UNK         0.0748 
    127 H127       38.3727   30.9838    3.5100 H         1 UNK         0.0771 
    128 H128       37.7068   29.3571    3.4817 H         1 UNK         0.0771 
    129 H129       36.9972   30.6112    2.4726 H         1 UNK         0.0771 
    130 H130       35.6060   29.0920    6.2620 H         1 UNK         0.2980 
    131 H131       33.7988   28.0405    6.7671 H         1 UNK         0.0545 
    132 H132       31.3257   30.7152    5.6285 H         1 UNK         0.3459 
    133 H133       33.0629   30.8536    5.7787 H         1 UNK         0.3459 
    134 H134       34.7544   26.4096    5.3247 H         1 UNK         0.0616 
    135 H135       33.0393   26.2513    5.3074 H         1 UNK         0.0616 
    136 H136       31.5529   27.3386    3.0601 H         1 UNK         0.0634 
    137 H137       32.1517   26.6808    1.5646 H         1 UNK         0.0634 
@<TRIPOS>BOND
     1    1    2 1    
     2    1   72 1    
     3    1   73 1    
     4    1   74 1    
     5    2    3 2    
     6    2    4 am   BACKBONE|DICT|INTERRES
     7    4    5 1    
     8    4   75 1    
     9    5    6 1    
    10    5   35 1    
    11    5   76 1    
    12    6    7 1    
    13    6   77 1    
    14    6   78 1    
    15    7    8 1    
    16    8    9 1    
    17    8   79 1    
    18    8   80 1    
    19    9   10 ar   
    20    9   14 ar   
    21   10   11 ar   
    22   10   81 1    
    23   11   12 ar   
    24   11   71 1    
    25   12   13 ar   
    26   12   82 1    
    27   13   14 ar   
    28   13   15 1    
    29   14   83 1    
    30   15   16 1    
    31   15   84 1    
    32   15   85 1    
    33   16   17 1    
    34   17   18 1    
    35   17   86 1    
    36   17   87 1    
    37   18   19 1    
    38   18   37 1    
    39   18   88 1    
    40   19   20 am   BACKBONE|DICT|INTERRES
    41   19   89 1    
    42   20   21 2    
    43   20   22 1    
    44   22   23 1    
    45   22   24 1    
    46   22   90 1    
    47   23   91 1    
    48   23   92 1    
    49   23   93 1    
    50   24   25 am   BACKBONE|DICT|INTERRES
    51   24   94 1    
    52   25   26 2    
    53   25   27 1    
    54   27   28 1    
    55   27   29 1    
    56   27   95 1    
    57   28   96 1    
    58   28   97 1    
    59   28   98 1    
    60   29   30 am   BACKBONE|DICT|INTERRES
    61   29   99 1    
    62   30   31 2    
    63   30   32 1    
    64   32   33 1    
    65   32   34 1    
    66   32  100 1    
    67   33  101 1    
    68   33  102 1    
    69   33  103 1    
    70   34   35 am   BACKBONE|DICT|INTERRES
    71   34  104 1    
    72   35   36 2    
    73   37   38 2    
    74   37   39 am   BACKBONE|DICT|INTERRES
    75   39   40 1    
    76   39  105 1    
    77   40   41 1    
    78   40   42 1    
    79   40  106 1    
    80   41  107 1    
    81   41  108 1    
    82   41  109 1    
    83   42   43 2    
    84   42   44 am   BACKBONE|DICT|INTERRES
    85   44   45 1    
    86   44  110 1    
    87   45   46 1    
    88   45   47 1    
    89   45  111 1    
    90   46  112 1    
    91   46  113 1    
    92   46  114 1    
    93   47   48 2    
    94   47   49 am   BACKBONE|DICT|INTERRES
    95   49   50 1    
    96   49  115 1    
    97   50   51 1    
    98   50   52 1    
    99   50  116 1    
   100   51  117 1    
   101   51  118 1    
   102   51  119 1    
   103   52   53 2    
   104   52   54 am   BACKBONE|DICT|INTERRES
   105   54   55 1    
   106   54  120 1    
   107   55   56 1    
   108   55   57 1    
   109   55  121 1    
   110   56  122 1    
   111   56  123 1    
   112   56  124 1    
   113   57   58 2    
   114   57   59 am   BACKBONE|DICT|INTERRES
   115   59   60 1    
   116   59  125 1    
   117   60   61 1    
   118   60   62 1    
   119   60  126 1    
   120   61  127 1    
   121   61  128 1    
   122   61  129 1    
   123   62   63 2    
   124   62   64 am   BACKBONE|DICT|INTERRES
   125   64   65 1    
   126   64  130 1    
   127   65   66 1    
   128   65   69 1    
   129   65  131 1    
   130   66   67 am   BACKBONE|DICT|INTERRES
   131   66   68 2    
   132   67  132 1    
   133   67  133 1    
   134   69   70 1    
   135   69  134 1    
   136   69  135 1    
   137   70   71 1    
   138   71  136 1    
   139   71  137 1    
@<TRIPOS>SUBSTRUCTURE
     1 UNK         1 GROUP             0       ****    0 ROOT    
