@<TRIPOS>MOLECULE
3R136
137   139    1
SMALL
USER_CHARGES


@<TRIPOS>ATOM
      1 CA         30.3619   17.0532    0.8026 C.3       0 UNK        -0.1979 
      2 C          30.0813   18.5130    1.1316 C.2       0 UNK         0.4864 
      3 O          29.1245   18.7882    1.8541 O.2       0 UNK        -0.5359 
      4 N          30.9184   19.4186    0.6036 N.am      1 UNK        -0.4318 
      5 CA         30.8863   20.8860    0.7064 C.3       1 UNK         0.0824 
      6 C6         31.0071   21.4326    2.1649 C.3       12 UNK        -0.0944 
      7 S7         29.4567   21.7830    3.0756 S.3       12 UNK        -0.2672 
      8 C8         30.0736   22.0974    4.7588 C.3       12 UNK         0.0333 
      9 C9         30.8822   23.3838    4.8209 C.ar      12 UNK        -0.0807 
     10 C10        32.2684   23.3425    4.6775 C.ar      12 UNK        -0.0894 
     11 C11        33.0157   24.5206    4.6674 C.ar      12 UNK        -0.0804 
     12 C12        32.3694   25.7495    4.8405 C.ar      12 UNK        -0.0824 
     13 C13        30.9797   25.8108    5.0053 C.ar      12 UNK        -0.0762 
     14 C14        30.2448   24.6146    4.9966 C.ar      12 UNK        -0.0782 
     15 C15        30.3309   27.1885    5.1747 C.3       12 UNK         0.0230 
     16 S16        28.5040   27.1995    5.2202 S.3       12 UNK        -0.2608 
     17 C17        28.1409   28.9788    5.4013 C.3       12 UNK        -0.0989 
     18 CA         28.2365   29.7567    4.0664 C.3       5 UNK         0.0716 
     19 N          27.5178   29.0979    2.9713 N.am      5 UNK        -0.4135 
     20 C          27.6288   29.4165    1.6760 C.2       4 UNK         0.5031 
     21 O          28.1819   30.4443    1.2847 O.2       4 UNK        -0.5229 
     22 CA         27.0421   28.4165    0.6625 C.3       4 UNK         0.0329 
     23 CB         27.4921   28.7043   -0.7821 C.3       4 UNK        -0.2001 
     24 N          27.4035   27.0370    0.9992 N.am      4 UNK        -0.4303 
     25 C          26.7533   26.2511    1.8678 C.2       3 UNK         0.5044 
     26 O          25.7813   26.6390    2.5180 O.2       3 UNK        -0.5152 
     27 CA         27.2967   24.8236    2.0867 C.3       3 UNK         0.0319 
     28 CB         26.1722   23.8105    2.3868 C.3       3 UNK        -0.2001 
     29 N          28.1681   24.3325    1.0104 N.am      3 UNK        -0.4354 
     30 C          27.8507   24.1345   -0.2794 C.2       2 UNK         0.4964 
     31 O          26.7385   24.3483   -0.7618 O.2       2 UNK        -0.5047 
     32 CA         28.9803   23.6378   -1.1964 C.3       2 UNK         0.0288 
     33 CB         29.6885   24.8350   -1.8519 C.3       2 UNK        -0.2113 
     34 N          29.9631   22.8157   -0.4832 N.am      2 UNK        -0.4145 
     35 C          29.7649   21.5356   -0.1382 C.2       1 UNK         0.5006 
     36 O          28.7672   20.8923   -0.4760 O.2       1 UNK        -0.5103 
     37 C          27.8745   31.2439    4.2577 C.2       5 UNK         0.5055 
     38 O          28.6928   31.9943    4.7922 O.2       5 UNK        -0.5220 
     39 N          26.6927   31.6571    3.7771 N.am      6 UNK        -0.4450 
     40 CA         26.2574   33.0539    3.7062 C.3       6 UNK         0.0367 
     41 CB         24.7939   33.1073    3.2406 C.3       6 UNK        -0.1929 
     42 C          27.1429   33.9270    2.7960 C.2       6 UNK         0.5070 
     43 O          27.2681   35.1243    3.0538 O.2       6 UNK        -0.5237 
     44 N          27.7822   33.3255    1.7815 N.am      7 UNK        -0.4739 
     45 CA         28.7376   33.9798    0.8840 C.3       7 UNK         0.0276 
     46 CB         28.6852   33.2935   -0.4944 C.3       7 UNK        -0.1927 
     47 C          30.1542   33.9887    1.4922 C.2       7 UNK         0.5013 
     48 O          31.1043   33.5497    0.8438 O.2       7 UNK        -0.5193 
     49 N          30.2607   34.4824    2.7348 N.am      8 UNK        -0.4253 
     50 CA         31.4787   34.6256    3.5417 C.3       8 UNK         0.0242 
     51 CB         32.3886   35.7245    2.9509 C.3       8 UNK        -0.2000 
     52 C          32.2181   33.2914    3.7710 C.2       8 UNK         0.4948 
     53 O          33.4216   33.2039    3.5192 O.2       8 UNK        -0.5275 
     54 N          31.4776   32.2822    4.2558 N.am      9 UNK        -0.4246 
     55 CA         31.9439   30.9338    4.6053 C.3       9 UNK         0.0261 
     56 CB         32.9271   30.9798    5.7954 C.3       9 UNK        -0.1959 
     57 C          32.4904   30.1379    3.4022 C.2       9 UNK         0.5033 
     58 O          33.4845   29.4241    3.5495 O.2       9 UNK        -0.5390 
     59 N          31.8365   30.2646    2.2360 N.am      10 UNK        -0.4215 
     60 CA         32.1974   29.5660    0.9993 C.3       10 UNK         0.0240 
     61 CB         31.3749   30.1125   -0.1781 C.3       10 UNK        -0.1982 
     62 C          32.0419   28.0405    1.1313 C.2       10 UNK         0.4970 
     63 O          30.9185   27.5340    1.1792 O.2       10 UNK        -0.4916 
     64 N          33.1885   27.3580    1.2026 N.am      11 UNK        -0.4279 
     65 CA         33.3180   25.9034    1.3429 C.3       11 UNK         0.1003 
     66 C          32.9351   25.1074    0.0644 C.2       11 UNK         0.5709 
     67 N          33.0818   25.6753   -1.1268 N.am      11 UNK        -0.7358 
     68 O          32.4658   23.9756    0.1533 O.2       11 UNK        -0.4999 
     69 C69        34.7454   25.5616    1.8496 C.3       12 UNK        -0.0954 
     70 S70        34.8856   23.9654    2.7154 S.3       12 UNK        -0.2268 
     71 C71        34.5160   24.4443    4.4352 C.3       12 UNK         0.0203 
     72 H72        29.5083   16.6151    0.2859 H         1 UNK         0.0888 
     73 H73        31.2388   16.9367    0.1659 H         1 UNK         0.0888 
     74 H74        30.5321   16.4883    1.7188 H         1 UNK         0.0888 
     75 H75        31.6562   19.0723    0.0063 H         1 UNK         0.3017 
     76 H76        31.8113   21.1777    0.2051 H         1 UNK         0.0873 
     77 H77        31.6204   20.7582    2.7643 H         1 UNK         0.0745 
     78 H78        31.5631   22.3704    2.1327 H         1 UNK         0.0745 
     79 H79        29.2239   22.1613    5.4401 H         1 UNK         0.0705 
     80 H80        30.6708   21.2480    5.0942 H         1 UNK         0.0705 
     81 H81        32.7662   22.3932    4.5332 H         1 UNK         0.1334 
     82 H82        32.9479   26.6641    4.8253 H         1 UNK         0.1417 
     83 H83        29.1712   24.6216    5.1126 H         1 UNK         0.1562 
     84 H84        30.6547   27.8207    4.3471 H         1 UNK         0.0748 
     85 H85        30.7090   27.6453    6.0904 H         1 UNK         0.0748 
     86 H86        28.8159   29.4043    6.1469 H         1 UNK         0.0940 
     87 H87        27.1362   29.0676    5.8197 H         1 UNK         0.0940 
     88 H88        29.2814   29.7455    3.7584 H         1 UNK         0.0703 
     89 H89        27.0208   28.2468    3.2073 H         1 UNK         0.3081 
     90 H90        25.9562   28.5239    0.7001 H         1 UNK         0.0719 
     91 H91        27.2286   29.7190   -1.0837 H         1 UNK         0.0809 
     92 H92        27.0135   28.0241   -1.4869 H         1 UNK         0.0809 
     93 H93        28.5711   28.5972   -0.8963 H         1 UNK         0.0809 
     94 H94        28.2416   26.6748    0.5672 H         1 UNK         0.2990 
     95 H95        27.9286   24.8820    2.9734 H         1 UNK         0.0690 
     96 H96        26.5725   22.8105    2.5530 H         1 UNK         0.0788 
     97 H97        25.4521   23.7518    1.5701 H         1 UNK         0.0788 
     98 H98        25.6220   24.0900    3.2860 H         1 UNK         0.0788 
     99 H99        29.1130   24.1120    1.2925 H         1 UNK         0.2993 
    100 H100       28.5268   23.0348   -1.9864 H         1 UNK         0.0949 
    101 H101       30.4784   24.5075   -2.5278 H         1 UNK         0.0767 
    102 H102       28.9863   25.4289   -2.4388 H         1 UNK         0.0767 
    103 H103       30.1326   25.4997   -1.1096 H         1 UNK         0.0767 
    104 H104       30.8374   23.2661   -0.2150 H         1 UNK         0.3013 
    105 H105       26.0881   30.9697    3.3514 H         1 UNK         0.3121 
    106 H106       26.3135   33.4710    4.7140 H         1 UNK         0.0774 
    107 H107       24.6715   32.6849    2.2423 H         1 UNK         0.0815 
    108 H108       24.4342   34.1367    3.2045 H         1 UNK         0.0815 
    109 H109       24.1395   32.5618    3.9207 H         1 UNK         0.0815 
    110 H110       27.6970   32.3187    1.6700 H         1 UNK         0.2987 
    111 H111       28.4441   35.0224    0.7421 H         1 UNK         0.0949 
    112 H112       29.0161   32.2560   -0.4440 H         1 UNK         0.0806 
    113 H113       27.6756   33.3031   -0.9051 H         1 UNK         0.0806 
    114 H114       29.3305   33.8051   -1.2096 H         1 UNK         0.0806 
    115 H115       29.4016   34.8005    3.1697 H         1 UNK         0.3010 
    116 H116       31.1555   34.9647    4.5273 H         1 UNK         0.0829 
    117 H117       32.7746   35.4463    1.9695 H         1 UNK         0.0813 
    118 H118       31.8542   36.6685    2.8457 H         1 UNK         0.0813 
    119 H119       33.2476   35.9099    3.5971 H         1 UNK         0.0813 
    120 H120       30.4859   32.4452    4.4223 H         1 UNK         0.3038 
    121 H121       31.0680   30.3908    4.9559 H         1 UNK         0.0769 
    122 H122       33.1600   29.9745    6.1488 H         1 UNK         0.0811 
    123 H123       33.8710   31.4537    5.5247 H         1 UNK         0.0811 
    124 H124       32.5054   31.5276    6.6381 H         1 UNK         0.0811 
    125 H125       31.0404   30.8836    2.1849 H         1 UNK         0.3204 
    126 H126       33.2452   29.7948    0.7927 H         1 UNK         0.0748 
    127 H127       31.6371   29.6045   -1.1070 H         1 UNK         0.0771 
    128 H128       30.3071   29.9731   -0.0246 H         1 UNK         0.0771 
    129 H129       31.5555   31.1763   -0.3302 H         1 UNK         0.0771 
    130 H130       34.0551   27.8748    1.1874 H         1 UNK         0.2980 
    131 H131       32.6002   25.6036    2.1064 H         1 UNK         0.0545 
    132 H132       32.8311   25.1580   -1.9534 H         1 UNK         0.3459 
    133 H133       33.4549   26.6067   -1.2094 H         1 UNK         0.3459 
    134 H134       35.4588   25.5689    1.0234 H         1 UNK         0.0616 
    135 H135       35.0960   26.3327    2.5377 H         1 UNK         0.0616 
    136 H136       34.9423   23.6965    5.1054 H         1 UNK         0.0634 
    137 H137       35.0049   25.3881    4.6807 H         1 UNK         0.0634 
@<TRIPOS>BOND
     1    1    2 1    
     2    1   72 1    
     3    1   73 1    
     4    1   74 1    
     5    2    3 2    
     6    2    4 am   BACKBONE|DICT|INTERRES
     7    4    5 1    
     8    4   75 1    
     9    5    6 1    
    10    5   35 1    
    11    5   76 1    
    12    6    7 1    
    13    6   77 1    
    14    6   78 1    
    15    7    8 1    
    16    8    9 1    
    17    8   79 1    
    18    8   80 1    
    19    9   10 ar   
    20    9   14 ar   
    21   10   11 ar   
    22   10   81 1    
    23   11   12 ar   
    24   11   71 1    
    25   12   13 ar   
    26   12   82 1    
    27   13   14 ar   
    28   13   15 1    
    29   14   83 1    
    30   15   16 1    
    31   15   84 1    
    32   15   85 1    
    33   16   17 1    
    34   17   18 1    
    35   17   86 1    
    36   17   87 1    
    37   18   19 1    
    38   18   37 1    
    39   18   88 1    
    40   19   20 am   BACKBONE|DICT|INTERRES
    41   19   89 1    
    42   20   21 2    
    43   20   22 1    
    44   22   23 1    
    45   22   24 1    
    46   22   90 1    
    47   23   91 1    
    48   23   92 1    
    49   23   93 1    
    50   24   25 am   BACKBONE|DICT|INTERRES
    51   24   94 1    
    52   25   26 2    
    53   25   27 1    
    54   27   28 1    
    55   27   29 1    
    56   27   95 1    
    57   28   96 1    
    58   28   97 1    
    59   28   98 1    
    60   29   30 am   BACKBONE|DICT|INTERRES
    61   29   99 1    
    62   30   31 2    
    63   30   32 1    
    64   32   33 1    
    65   32   34 1    
    66   32  100 1    
    67   33  101 1    
    68   33  102 1    
    69   33  103 1    
    70   34   35 am   BACKBONE|DICT|INTERRES
    71   34  104 1    
    72   35   36 2    
    73   37   38 2    
    74   37   39 am   BACKBONE|DICT|INTERRES
    75   39   40 1    
    76   39  105 1    
    77   40   41 1    
    78   40   42 1    
    79   40  106 1    
    80   41  107 1    
    81   41  108 1    
    82   41  109 1    
    83   42   43 2    
    84   42   44 am   BACKBONE|DICT|INTERRES
    85   44   45 1    
    86   44  110 1    
    87   45   46 1    
    88   45   47 1    
    89   45  111 1    
    90   46  112 1    
    91   46  113 1    
    92   46  114 1    
    93   47   48 2    
    94   47   49 am   BACKBONE|DICT|INTERRES
    95   49   50 1    
    96   49  115 1    
    97   50   51 1    
    98   50   52 1    
    99   50  116 1    
   100   51  117 1    
   101   51  118 1    
   102   51  119 1    
   103   52   53 2    
   104   52   54 am   BACKBONE|DICT|INTERRES
   105   54   55 1    
   106   54  120 1    
   107   55   56 1    
   108   55   57 1    
   109   55  121 1    
   110   56  122 1    
   111   56  123 1    
   112   56  124 1    
   113   57   58 2    
   114   57   59 am   BACKBONE|DICT|INTERRES
   115   59   60 1    
   116   59  125 1    
   117   60   61 1    
   118   60   62 1    
   119   60  126 1    
   120   61  127 1    
   121   61  128 1    
   122   61  129 1    
   123   62   63 2    
   124   62   64 am   BACKBONE|DICT|INTERRES
   125   64   65 1    
   126   64  130 1    
   127   65   66 1    
   128   65   69 1    
   129   65  131 1    
   130   66   67 am   BACKBONE|DICT|INTERRES
   131   66   68 2    
   132   67  132 1    
   133   67  133 1    
   134   69   70 1    
   135   69  134 1    
   136   69  135 1    
   137   70   71 1    
   138   71  136 1    
   139   71  137 1    
@<TRIPOS>SUBSTRUCTURE
     1 UNK         1 GROUP             0       ****    0 ROOT    
