@<TRIPOS>MOLECULE
3R136
137   139    1
SMALL
USER_CHARGES


@<TRIPOS>ATOM
      1 CA         34.1256   27.7647    0.7582 C.3       0 UNK        -0.1979 
      2 C          32.8878   26.8819    0.6992 C.2       0 UNK         0.4864 
      3 O          31.8489   27.2405    1.2529 O.2       0 UNK        -0.5359 
      4 N          32.9811   25.7329    0.0162 N.am      1 UNK        -0.4318 
      5 CA         31.8933   24.7688   -0.1859 C.3       1 UNK         0.0824 
      6 C6         32.4664   23.3649   -0.5143 C.3       12 UNK        -0.0944 
      7 S7         31.2257   22.0234   -0.4676 S.3       12 UNK        -0.2672 
      8 C8         31.5253   21.2578    1.1546 C.3       12 UNK         0.0333 
      9 C9         30.7577   21.9620    2.2632 C.ar      12 UNK        -0.0807 
     10 C10        31.3933   22.8964    3.0862 C.ar      12 UNK        -0.0894 
     11 C11        30.6969   23.5011    4.1374 C.ar      12 UNK        -0.0804 
     12 C12        29.3595   23.1645    4.3639 C.ar      12 UNK        -0.0824 
     13 C13        28.7060   22.2484    3.5337 C.ar      12 UNK        -0.0762 
     14 C14        29.4120   21.6508    2.4851 C.ar      12 UNK        -0.0782 
     15 C15        27.2499   21.8766    3.7839 C.3       12 UNK         0.0230 
     16 S16        26.0908   22.9862    2.9177 S.3       12 UNK        -0.2608 
     17 C17        26.1562   24.4798    3.9643 C.3       12 UNK        -0.0989 
     18 CA         26.8294   25.6743    3.2303 C.3       5 UNK         0.0716 
     19 N          26.0316   26.1800    2.1009 N.am      5 UNK        -0.4135 
     20 C          24.8375   26.7947    2.1777 C.2       4 UNK         0.5031 
     21 O          24.2241   26.9656    3.2321 O.2       4 UNK        -0.5229 
     22 CA         24.2216   27.3579    0.8808 C.3       4 UNK         0.0329 
     23 CB         24.3108   28.8940    0.8753 C.3       4 UNK        -0.2001 
     24 N          24.8448   26.8492   -0.3406 N.am      4 UNK        -0.4303 
     25 C          24.6648   25.6208   -0.8444 C.2       3 UNK         0.5044 
     26 O          23.8655   24.8034   -0.3875 O.2       3 UNK        -0.5152 
     27 CA         25.5411   25.2286   -2.0515 C.3       3 UNK         0.0319 
     28 CB         24.7426   25.3601   -3.3586 C.3       3 UNK        -0.2001 
     29 N          26.7952   25.9875   -2.1745 N.am      3 UNK        -0.4354 
     30 C          27.7674   26.0232   -1.2523 C.2       2 UNK         0.4964 
     31 O          27.6885   25.4674   -0.1542 O.2       2 UNK        -0.5047 
     32 CA         28.9993   26.8784   -1.5821 C.3       2 UNK         0.0288 
     33 CB         28.7640   28.3412   -1.1718 C.3       2 UNK        -0.2113 
     34 N          30.1652   26.3673   -0.8661 N.am      2 UNK        -0.4145 
     35 C          30.8755   25.2933   -1.2280 C.2       1 UNK         0.5006 
     36 O          30.7616   24.7480   -2.3286 O.2       1 UNK        -0.5103 
     37 C          27.2668   26.8092    4.1893 C.2       5 UNK         0.5055 
     38 O          27.4033   26.5830    5.3934 O.2       5 UNK        -0.5220 
     39 N          27.4756   28.0105    3.6356 N.am      6 UNK        -0.4450 
     40 CA         27.8284   29.2574    4.3066 C.3       6 UNK         0.0367 
     41 CB         26.7105   29.6851    5.2854 C.3       6 UNK        -0.1929 
     42 C          28.0271   30.3290    3.2235 C.2       6 UNK         0.5070 
     43 O          27.7701   30.0635    2.0460 O.2       6 UNK        -0.5237 
     44 N          28.4392   31.5294    3.6553 N.am      7 UNK        -0.4739 
     45 CA         28.5221   32.7750    2.8761 C.3       7 UNK         0.0276 
     46 CB         27.1270   33.1950    2.3618 C.3       7 UNK        -0.1927 
     47 C          29.5888   32.7859    1.7617 C.2       7 UNK         0.5013 
     48 O          29.4949   33.6029    0.8435 O.2       7 UNK        -0.5193 
     49 N          30.6051   31.9243    1.8753 N.am      8 UNK        -0.4253 
     50 CA         31.7704   31.8855    0.9976 C.3       8 UNK         0.0242 
     51 CB         31.5267   30.8986   -0.1578 C.3       8 UNK        -0.2000 
     52 C          32.9726   31.4625    1.8412 C.2       8 UNK         0.4948 
     53 O          32.9281   30.3826    2.4293 O.2       8 UNK        -0.5275 
     54 N          34.0037   32.3187    1.9127 N.am      9 UNK        -0.4246 
     55 CA         35.3125   32.0927    2.5539 C.3       9 UNK         0.0261 
     56 CB         36.1765   31.1901    1.6474 C.3       9 UNK        -0.1959 
     57 C          35.2526   31.5624    4.0054 C.2       9 UNK         0.5033 
     58 O          36.1025   30.7595    4.3971 O.2       9 UNK        -0.5390 
     59 N          34.2169   31.9687    4.7584 N.am      10 UNK        -0.4215 
     60 CA         33.8447   31.4740    6.0952 C.3       10 UNK         0.0240 
     61 CB         34.8573   31.9637    7.1526 C.3       10 UNK        -0.1982 
     62 C          33.6192   29.9436    6.1562 C.2       10 UNK         0.4970 
     63 O          33.7962   29.3412    7.2164 O.2       10 UNK        -0.4916 
     64 N          33.2482   29.3451    5.0164 N.am      11 UNK        -0.4279 
     65 CA         33.1550   27.9018    4.7669 C.3       11 UNK         0.1003 
     66 C          34.5241   27.1530    4.7776 C.2       11 UNK         0.5709 
     67 N          35.6587   27.8378    4.6765 N.am      11 UNK        -0.7358 
     68 O          34.5700   25.9281    4.8464 O.2       11 UNK        -0.4999 
     69 C69        32.0320   27.2099    5.5986 C.3       12 UNK        -0.0954 
     70 S70        30.9358   26.2066    4.5434 S.3       12 UNK        -0.2268 
     71 C71        31.3860   24.5174    5.0328 C.3       12 UNK         0.0203 
     72 H72        33.9246   28.7191    0.2728 H         1 UNK         0.0888 
     73 H73        34.3977   27.9654    1.7933 H         1 UNK         0.0888 
     74 H74        34.9818   27.3047    0.2656 H         1 UNK         0.0888 
     75 H75        33.8506   25.5072   -0.4457 H         1 UNK         0.3017 
     76 H76        31.3516   24.6812    0.7592 H         1 UNK         0.0873 
     77 H77        33.2660   23.1206    0.1865 H         1 UNK         0.0745 
     78 H78        32.9336   23.3636   -1.5009 H         1 UNK         0.0745 
     79 H79        31.2088   20.2147    1.1067 H         1 UNK         0.0705 
     80 H80        32.5939   21.2334    1.3730 H         1 UNK         0.0705 
     81 H81        32.4309   23.1486    2.9134 H         1 UNK         0.1334 
     82 H82        28.8310   23.6273    5.1852 H         1 UNK         0.1417 
     83 H83        28.9165   20.9335    1.8446 H         1 UNK         0.1562 
     84 H84        27.0349   21.8749    4.8536 H         1 UNK         0.0748 
     85 H85        27.0683   20.8558    3.4439 H         1 UNK         0.0748 
     86 H86        26.6765   24.2326    4.8890 H         1 UNK         0.0940 
     87 H87        25.1415   24.7342    4.2724 H         1 UNK         0.0940 
     88 H88        27.7614   25.3090    2.7948 H         1 UNK         0.0703 
     89 H89        26.4590   26.0390    1.1893 H         1 UNK         0.3081 
     90 H90        23.1665   27.0762    0.8729 H         1 UNK         0.0719 
     91 H91        25.3455   29.2399    0.8725 H         1 UNK         0.0809 
     92 H92        23.8117   29.3183    0.0039 H         1 UNK         0.0809 
     93 H93        23.8304   29.3176    1.7585 H         1 UNK         0.0809 
     94 H94        25.5107   27.4545   -0.7974 H         1 UNK         0.2990 
     95 H95        25.8101   24.1783   -1.9202 H         1 UNK         0.0690 
     96 H96        25.3101   24.9862   -4.2111 H         1 UNK         0.0788 
     97 H97        24.4700   26.3964   -3.5628 H         1 UNK         0.0788 
     98 H98        23.8175   24.7834   -3.3113 H         1 UNK         0.0788 
     99 H99        26.9290   26.4918   -3.0398 H         1 UNK         0.2993 
    100 H100       29.1890   26.8338   -2.6569 H         1 UNK         0.0949 
    101 H101       29.6174   28.9640   -1.4382 H         1 UNK         0.0767 
    102 H102       27.8918   28.7597   -1.6756 H         1 UNK         0.0767 
    103 H103       28.6010   28.4405   -0.0974 H         1 UNK         0.0767 
    104 H104       30.3749   26.7793    0.0392 H         1 UNK         0.3013 
    105 H105       27.3724   28.1251    2.6337 H         1 UNK         0.3121 
    106 H106       28.7694   29.1156    4.8418 H         1 UNK         0.0774 
    107 H107       26.9373   30.6377    5.7648 H         1 UNK         0.0815 
    108 H108       25.7541   29.7974    4.7730 H         1 UNK         0.0815 
    109 H109       26.5733   28.9612    6.0879 H         1 UNK         0.0815 
    110 H110       28.6437   31.6289    4.6406 H         1 UNK         0.2987 
    111 H111       28.8439   33.5416    3.5828 H         1 UNK         0.0949 
    112 H112       27.1506   34.1979    1.9338 H         1 UNK         0.0806 
    113 H113       26.7619   32.5215    1.5858 H         1 UNK         0.0806 
    114 H114       26.3933   33.2079    3.1677 H         1 UNK         0.0806 
    115 H115       30.6228   31.2784    2.6530 H         1 UNK         0.3010 
    116 H116       31.9597   32.8777    0.5820 H         1 UNK         0.0829 
    117 H117       30.6805   31.2096   -0.7705 H         1 UNK         0.0813 
    118 H118       32.3979   30.8361   -0.8108 H         1 UNK         0.0813 
    119 H119       31.3204   29.8926    0.2114 H         1 UNK         0.0813 
    120 H120       33.9146   33.2017    1.4279 H         1 UNK         0.3038 
    121 H121       35.7998   33.0670    2.6124 H         1 UNK         0.0769 
    122 H122       37.1969   31.1113    2.0249 H         1 UNK         0.0811 
    123 H123       36.2396   31.5862    0.6340 H         1 UNK         0.0811 
    124 H124       35.7722   30.1792    1.5879 H         1 UNK         0.0811 
    125 H125       33.5693   32.6206    4.3379 H         1 UNK         0.3204 
    126 H126       32.8796   31.9255    6.3290 H         1 UNK         0.0748 
    127 H127       34.5197   31.7242    8.1618 H         1 UNK         0.0771 
    128 H128       35.8359   31.5014    7.0189 H         1 UNK         0.0771 
    129 H129       34.9881   33.0448    7.1059 H         1 UNK         0.0771 
    130 H130       33.1479   29.9076    4.1736 H         1 UNK         0.2980 
    131 H131       32.8604   27.8678    3.7187 H         1 UNK         0.0545 
    132 H132       36.5315   27.3356    4.6767 H         1 UNK         0.3459 
    133 H133       35.6638   28.8512    4.6119 H         1 UNK         0.3459 
    134 H134       32.4377   26.6102    6.4152 H         1 UNK         0.0616 
    135 H135       31.3926   27.9534    6.0766 H         1 UNK         0.0616 
    136 H136       31.1025   24.3536    6.0734 H         1 UNK         0.0634 
    137 H137       32.4676   24.3934    4.9804 H         1 UNK         0.0634 
@<TRIPOS>BOND
     1    1    2 1    
     2    1   72 1    
     3    1   73 1    
     4    1   74 1    
     5    2    3 2    
     6    2    4 am   BACKBONE|DICT|INTERRES
     7    4    5 1    
     8    4   75 1    
     9    5    6 1    
    10    5   35 1    
    11    5   76 1    
    12    6    7 1    
    13    6   77 1    
    14    6   78 1    
    15    7    8 1    
    16    8    9 1    
    17    8   79 1    
    18    8   80 1    
    19    9   10 ar   
    20    9   14 ar   
    21   10   11 ar   
    22   10   81 1    
    23   11   12 ar   
    24   11   71 1    
    25   12   13 ar   
    26   12   82 1    
    27   13   14 ar   
    28   13   15 1    
    29   14   83 1    
    30   15   16 1    
    31   15   84 1    
    32   15   85 1    
    33   16   17 1    
    34   17   18 1    
    35   17   86 1    
    36   17   87 1    
    37   18   19 1    
    38   18   37 1    
    39   18   88 1    
    40   19   20 am   BACKBONE|DICT|INTERRES
    41   19   89 1    
    42   20   21 2    
    43   20   22 1    
    44   22   23 1    
    45   22   24 1    
    46   22   90 1    
    47   23   91 1    
    48   23   92 1    
    49   23   93 1    
    50   24   25 am   BACKBONE|DICT|INTERRES
    51   24   94 1    
    52   25   26 2    
    53   25   27 1    
    54   27   28 1    
    55   27   29 1    
    56   27   95 1    
    57   28   96 1    
    58   28   97 1    
    59   28   98 1    
    60   29   30 am   BACKBONE|DICT|INTERRES
    61   29   99 1    
    62   30   31 2    
    63   30   32 1    
    64   32   33 1    
    65   32   34 1    
    66   32  100 1    
    67   33  101 1    
    68   33  102 1    
    69   33  103 1    
    70   34   35 am   BACKBONE|DICT|INTERRES
    71   34  104 1    
    72   35   36 2    
    73   37   38 2    
    74   37   39 am   BACKBONE|DICT|INTERRES
    75   39   40 1    
    76   39  105 1    
    77   40   41 1    
    78   40   42 1    
    79   40  106 1    
    80   41  107 1    
    81   41  108 1    
    82   41  109 1    
    83   42   43 2    
    84   42   44 am   BACKBONE|DICT|INTERRES
    85   44   45 1    
    86   44  110 1    
    87   45   46 1    
    88   45   47 1    
    89   45  111 1    
    90   46  112 1    
    91   46  113 1    
    92   46  114 1    
    93   47   48 2    
    94   47   49 am   BACKBONE|DICT|INTERRES
    95   49   50 1    
    96   49  115 1    
    97   50   51 1    
    98   50   52 1    
    99   50  116 1    
   100   51  117 1    
   101   51  118 1    
   102   51  119 1    
   103   52   53 2    
   104   52   54 am   BACKBONE|DICT|INTERRES
   105   54   55 1    
   106   54  120 1    
   107   55   56 1    
   108   55   57 1    
   109   55  121 1    
   110   56  122 1    
   111   56  123 1    
   112   56  124 1    
   113   57   58 2    
   114   57   59 am   BACKBONE|DICT|INTERRES
   115   59   60 1    
   116   59  125 1    
   117   60   61 1    
   118   60   62 1    
   119   60  126 1    
   120   61  127 1    
   121   61  128 1    
   122   61  129 1    
   123   62   63 2    
   124   62   64 am   BACKBONE|DICT|INTERRES
   125   64   65 1    
   126   64  130 1    
   127   65   66 1    
   128   65   69 1    
   129   65  131 1    
   130   66   67 am   BACKBONE|DICT|INTERRES
   131   66   68 2    
   132   67  132 1    
   133   67  133 1    
   134   69   70 1    
   135   69  134 1    
   136   69  135 1    
   137   70   71 1    
   138   71  136 1    
   139   71  137 1    
@<TRIPOS>SUBSTRUCTURE
     1 UNK         1 GROUP             0       ****    0 ROOT    
