@<TRIPOS>MOLECULE
3R136
137   139    1
SMALL
USER_CHARGES


@<TRIPOS>ATOM
      1 CA         29.3679   17.2157    0.4059 C.3       0 UNK        -0.1979 
      2 C          30.2884   18.4267    0.4320 C.2       0 UNK         0.4864 
      3 O          31.3599   18.3933   -0.1742 O.2       0 UNK        -0.5359 
      4 N          29.8790   19.4947    1.1304 N.am      1 UNK        -0.4318 
      5 CA         30.6168   20.7592    1.2523 C.3       1 UNK         0.0824 
      6 C6         30.1195   21.6009    2.4553 C.3       12 UNK        -0.0944 
      7 S7         28.3210   21.9309    2.4338 S.3       12 UNK        -0.2672 
      8 C8         28.2790   23.7217    2.1194 C.3       12 UNK         0.0333 
      9 C9         28.0664   24.5272    3.3938 C.ar      12 UNK        -0.0807 
     10 C10        29.0761   24.6231    4.3562 C.ar      12 UNK        -0.0894 
     11 C11        28.8884   25.3908    5.5102 C.ar      12 UNK        -0.0804 
     12 C12        27.6776   26.0639    5.7003 C.ar      12 UNK        -0.0824 
     13 C13        26.6639   25.9833    4.7406 C.ar      12 UNK        -0.0762 
     14 C14        26.8606   25.2051    3.5961 C.ar      12 UNK        -0.0782 
     15 C15        25.3669   26.7595    4.9193 C.3       12 UNK         0.0230 
     16 S16        25.2230   28.1173    3.7103 S.3       12 UNK        -0.2608 
     17 C17        26.5739   29.2351    4.2242 C.3       12 UNK        -0.0989 
     18 CA         27.9202   28.9466    3.5028 C.3       5 UNK         0.0716 
     19 N          27.7544   28.9242    2.0452 N.am      5 UNK        -0.4135 
     20 C          28.6593   28.5051    1.1533 C.2       4 UNK         0.5031 
     21 O          29.8192   28.1943    1.4367 O.2       4 UNK        -0.5229 
     22 CA         28.1630   28.4161   -0.3046 C.3       4 UNK         0.0329 
     23 CB         27.9964   29.8087   -0.9350 C.3       4 UNK        -0.2001 
     24 N          29.0675   27.6147   -1.1328 N.am      4 UNK        -0.4303 
     25 C          29.1491   26.2798   -1.0662 C.2       3 UNK         0.5044 
     26 O          28.3736   25.5863   -0.4057 O.2       3 UNK        -0.5152 
     27 CA         30.2999   25.6292   -1.8573 C.3       3 UNK         0.0319 
     28 CB         31.6650   26.0637   -1.2983 C.3       3 UNK        -0.2001 
     29 N          30.2441   24.1664   -1.8283 N.am      3 UNK        -0.4354 
     30 C          29.3824   23.4004   -2.5038 C.2       2 UNK         0.4964 
     31 O          28.5424   23.8477   -3.2863 O.2       2 UNK        -0.5047 
     32 CA         29.4798   21.8742   -2.3072 C.3       2 UNK         0.0288 
     33 CB         30.5674   21.2771   -3.2219 C.3       2 UNK        -0.2113 
     34 N          29.6414   21.3947   -0.9235 N.am      2 UNK        -0.4145 
     35 C          30.6597   21.5713   -0.0641 C.2       1 UNK         0.5006 
     36 O          31.6214   22.3121   -0.2762 O.2       1 UNK        -0.5103 
     37 C          29.0337   29.8950    3.9998 C.2       5 UNK         0.5055 
     38 O          29.6081   30.6586    3.2188 O.2       5 UNK        -0.5220 
     39 N          29.3036   29.8380    5.3131 N.am      6 UNK        -0.4450 
     40 CA         30.3560   30.5673    6.0316 C.3       6 UNK         0.0367 
     41 CB         30.1957   30.3387    7.5438 C.3       6 UNK        -0.1929 
     42 C          30.4282   32.0747    5.7325 C.2       6 UNK         0.5070 
     43 O          31.5179   32.5978    5.5049 O.2       6 UNK        -0.5237 
     44 N          29.2648   32.7351    5.7051 N.am      7 UNK        -0.4739 
     45 CA         29.1376   34.1660    5.4156 C.3       7 UNK         0.0276 
     46 CB         27.8031   34.6676    5.9925 C.3       7 UNK        -0.1927 
     47 C          29.2352   34.5115    3.9170 C.2       7 UNK         0.5013 
     48 O          29.4014   35.6881    3.5919 O.2       7 UNK        -0.5193 
     49 N          29.0968   33.5103    3.0378 N.am      8 UNK        -0.4253 
     50 CA         29.0350   33.6785    1.5870 C.3       8 UNK         0.0242 
     51 CB         27.8823   32.8280    1.0299 C.3       8 UNK        -0.2000 
     52 C          30.3611   33.3155    0.9056 C.2       8 UNK         0.4948 
     53 O          30.8447   34.1055    0.0935 O.2       8 UNK        -0.5275 
     54 N          30.9185   32.1385    1.2246 N.am      9 UNK        -0.4246 
     55 CA         32.1193   31.5988    0.5741 C.3       9 UNK         0.0261 
     56 CB         31.7136   30.7246   -0.6285 C.3       9 UNK        -0.1959 
     57 C          33.0568   30.8472    1.5333 C.2       9 UNK         0.5033 
     58 O          33.9552   30.1552    1.0532 O.2       9 UNK        -0.5390 
     59 N          32.8665   31.0036    2.8528 N.am      10 UNK        -0.4215 
     60 CA         33.6722   30.3981    3.9242 C.3       10 UNK         0.0240 
     61 CB         35.1255   30.9235    3.8938 C.3       10 UNK        -0.1982 
     62 C          33.5875   28.8566    3.9779 C.2       10 UNK         0.4970 
     63 O          34.5672   28.2147    4.3620 O.2       10 UNK        -0.4916 
     64 N          32.4189   28.2990    3.6234 N.am      11 UNK        -0.4279 
     65 CA         32.1200   26.8545    3.5763 C.3       11 UNK         0.1003 
     66 C          32.8948   26.0989    2.4523 C.2       11 UNK         0.5709 
     67 N          32.7716   24.7790    2.3792 N.am      11 UNK        -0.7358 
     68 O          33.5829   26.6847    1.6196 O.2       11 UNK        -0.4999 
     69 C69        32.2360   26.1559    4.9667 C.3       12 UNK        -0.0954 
     70 S70        31.1247   26.8696    6.2248 S.3       12 UNK        -0.2268 
     71 C71        29.9851   25.4894    6.5602 C.3       12 UNK         0.0203 
     72 H72        28.4591   17.3813    0.9844 H         1 UNK         0.0888 
     73 H73        29.0798   16.9855   -0.6195 H         1 UNK         0.0888 
     74 H74        29.8792   16.3470    0.8198 H         1 UNK         0.0888 
     75 H75        28.9935   19.4659    1.6176 H         1 UNK         0.3017 
     76 H76        31.6556   20.4955    1.4642 H         1 UNK         0.0873 
     77 H77        30.3378   21.0653    3.3805 H         1 UNK         0.0745 
     78 H78        30.6811   22.5331    2.5264 H         1 UNK         0.0745 
     79 H79        27.4694   23.9138    1.4142 H         1 UNK         0.0705 
     80 H80        29.1932   24.0491    1.6224 H         1 UNK         0.0705 
     81 H81        30.0063   24.0961    4.2074 H         1 UNK         0.1334 
     82 H82        27.5313   26.6612    6.5899 H         1 UNK         0.1417 
     83 H83        26.0788   25.1499    2.8505 H         1 UNK         0.1562 
     84 H84        25.2830   27.1611    5.9303 H         1 UNK         0.0748 
     85 H85        24.5231   26.0803    4.7894 H         1 UNK         0.0748 
     86 H86        26.6760   29.1656    5.3084 H         1 UNK         0.0940 
     87 H87        26.2510   30.2583    4.0211 H         1 UNK         0.0940 
     88 H88        28.2565   27.9465    3.7745 H         1 UNK         0.0703 
     89 H89        26.8306   29.1625    1.7171 H         1 UNK         0.3081 
     90 H90        27.1861   27.9271   -0.3004 H         1 UNK         0.0719 
     91 H91        28.8914   30.4190   -0.8262 H         1 UNK         0.0809 
     92 H92        27.7629   29.7408   -1.9977 H         1 UNK         0.0809 
     93 H93        27.1738   30.3493   -0.4668 H         1 UNK         0.0809 
     94 H94        29.7569   28.1190   -1.6696 H         1 UNK         0.2990 
     95 H95        30.2232   25.9582   -2.8956 H         1 UNK         0.0690 
     96 H96        32.4857   25.6284   -1.8687 H         1 UNK         0.0788 
     97 H97        31.7791   25.7528   -0.2603 H         1 UNK         0.0788 
     98 H98        31.7919   27.1465   -1.3281 H         1 UNK         0.0788 
     99 H99        30.8858   23.6903   -1.1985 H         1 UNK         0.2993 
    100 H100       28.5227   21.4682   -2.6394 H         1 UNK         0.0949 
    101 H101       31.5638   21.6287   -2.9522 H         1 UNK         0.0767 
    102 H102       30.5725   20.1880   -3.1718 H         1 UNK         0.0767 
    103 H103       30.3967   21.5533   -4.2634 H         1 UNK         0.0767 
    104 H104       28.8918   20.8000   -0.5989 H         1 UNK         0.3013 
    105 H105       28.7921   29.1697    5.8701 H         1 UNK         0.3121 
    106 H106       31.3017   30.1200    5.7310 H         1 UNK         0.0774 
    107 H107       30.9822   30.8502    8.1008 H         1 UNK         0.0815 
    108 H108       29.2401   30.7137    7.9121 H         1 UNK         0.0815 
    109 H109       30.2607   29.2816    7.7999 H         1 UNK         0.0815 
    110 H110       28.4135   32.2265    5.8963 H         1 UNK         0.2987 
    111 H111       29.9474   34.6977    5.9209 H         1 UNK         0.0949 
    112 H112       27.6859   35.7404    5.8321 H         1 UNK         0.0806 
    113 H113       26.9497   34.1740    5.5258 H         1 UNK         0.0806 
    114 H114       27.7453   34.4962    7.0676 H         1 UNK         0.0806 
    115 H115       29.0510   32.5589    3.3849 H         1 UNK         0.3010 
    116 H116       28.8174   34.7204    1.3412 H         1 UNK         0.0829 
    117 H117       26.9209   33.1685    1.4145 H         1 UNK         0.0813 
    118 H118       27.8371   32.8921   -0.0581 H         1 UNK         0.0813 
    119 H119       27.9922   31.7774    1.2962 H         1 UNK         0.0813 
    120 H120       30.4438   31.5321    1.8939 H         1 UNK         0.3038 
    121 H121       32.7204   32.4272    0.1935 H         1 UNK         0.0769 
    122 H122       32.5891   30.3852   -1.1833 H         1 UNK         0.0811 
    123 H123       31.0882   31.2764   -1.3299 H         1 UNK         0.0811 
    124 H124       31.1709   29.8360   -0.3067 H         1 UNK         0.0811 
    125 H125       32.1165   31.6087    3.1602 H         1 UNK         0.3204 
    126 H126       33.2483   30.7495    4.8623 H         1 UNK         0.0748 
    127 H127       35.6726   30.6113    4.7842 H         1 UNK         0.0771 
    128 H128       35.6763   30.5507    3.0299 H         1 UNK         0.0771 
    129 H129       35.1528   32.0129    3.8661 H         1 UNK         0.0771 
    130 H130       31.6933   28.8955    3.2518 H         1 UNK         0.2980 
    131 H131       31.0745   26.7952    3.2743 H         1 UNK         0.0545 
    132 H132       33.2549   24.2877    1.6438 H         1 UNK         0.3459 
    133 H133       32.2300   24.2661    3.0526 H         1 UNK         0.3459 
    134 H134       32.0217   25.0909    4.8889 H         1 UNK         0.0616 
    135 H135       33.2566   26.2124    5.3456 H         1 UNK         0.0616 
    136 H136       30.5386   24.5518    6.6287 H         1 UNK         0.0634 
    137 H137       29.5386   25.6440    7.5436 H         1 UNK         0.0634 
@<TRIPOS>BOND
     1    1    2 1    
     2    1   72 1    
     3    1   73 1    
     4    1   74 1    
     5    2    3 2    
     6    2    4 am   BACKBONE|DICT|INTERRES
     7    4    5 1    
     8    4   75 1    
     9    5    6 1    
    10    5   35 1    
    11    5   76 1    
    12    6    7 1    
    13    6   77 1    
    14    6   78 1    
    15    7    8 1    
    16    8    9 1    
    17    8   79 1    
    18    8   80 1    
    19    9   10 ar   
    20    9   14 ar   
    21   10   11 ar   
    22   10   81 1    
    23   11   12 ar   
    24   11   71 1    
    25   12   13 ar   
    26   12   82 1    
    27   13   14 ar   
    28   13   15 1    
    29   14   83 1    
    30   15   16 1    
    31   15   84 1    
    32   15   85 1    
    33   16   17 1    
    34   17   18 1    
    35   17   86 1    
    36   17   87 1    
    37   18   19 1    
    38   18   37 1    
    39   18   88 1    
    40   19   20 am   BACKBONE|DICT|INTERRES
    41   19   89 1    
    42   20   21 2    
    43   20   22 1    
    44   22   23 1    
    45   22   24 1    
    46   22   90 1    
    47   23   91 1    
    48   23   92 1    
    49   23   93 1    
    50   24   25 am   BACKBONE|DICT|INTERRES
    51   24   94 1    
    52   25   26 2    
    53   25   27 1    
    54   27   28 1    
    55   27   29 1    
    56   27   95 1    
    57   28   96 1    
    58   28   97 1    
    59   28   98 1    
    60   29   30 am   BACKBONE|DICT|INTERRES
    61   29   99 1    
    62   30   31 2    
    63   30   32 1    
    64   32   33 1    
    65   32   34 1    
    66   32  100 1    
    67   33  101 1    
    68   33  102 1    
    69   33  103 1    
    70   34   35 am   BACKBONE|DICT|INTERRES
    71   34  104 1    
    72   35   36 2    
    73   37   38 2    
    74   37   39 am   BACKBONE|DICT|INTERRES
    75   39   40 1    
    76   39  105 1    
    77   40   41 1    
    78   40   42 1    
    79   40  106 1    
    80   41  107 1    
    81   41  108 1    
    82   41  109 1    
    83   42   43 2    
    84   42   44 am   BACKBONE|DICT|INTERRES
    85   44   45 1    
    86   44  110 1    
    87   45   46 1    
    88   45   47 1    
    89   45  111 1    
    90   46  112 1    
    91   46  113 1    
    92   46  114 1    
    93   47   48 2    
    94   47   49 am   BACKBONE|DICT|INTERRES
    95   49   50 1    
    96   49  115 1    
    97   50   51 1    
    98   50   52 1    
    99   50  116 1    
   100   51  117 1    
   101   51  118 1    
   102   51  119 1    
   103   52   53 2    
   104   52   54 am   BACKBONE|DICT|INTERRES
   105   54   55 1    
   106   54  120 1    
   107   55   56 1    
   108   55   57 1    
   109   55  121 1    
   110   56  122 1    
   111   56  123 1    
   112   56  124 1    
   113   57   58 2    
   114   57   59 am   BACKBONE|DICT|INTERRES
   115   59   60 1    
   116   59  125 1    
   117   60   61 1    
   118   60   62 1    
   119   60  126 1    
   120   61  127 1    
   121   61  128 1    
   122   61  129 1    
   123   62   63 2    
   124   62   64 am   BACKBONE|DICT|INTERRES
   125   64   65 1    
   126   64  130 1    
   127   65   66 1    
   128   65   69 1    
   129   65  131 1    
   130   66   67 am   BACKBONE|DICT|INTERRES
   131   66   68 2    
   132   67  132 1    
   133   67  133 1    
   134   69   70 1    
   135   69  134 1    
   136   69  135 1    
   137   70   71 1    
   138   71  136 1    
   139   71  137 1    
@<TRIPOS>SUBSTRUCTURE
     1 UNK         1 GROUP             0       ****    0 ROOT    
