@<TRIPOS>MOLECULE
3R136
137   139    1
SMALL
USER_CHARGES


@<TRIPOS>ATOM
      1 CA         26.0259   21.8348    1.1876 C.3       0 UNK        -0.1979 
      2 C          27.4229   22.3017    0.8093 C.2       0 UNK         0.4864 
      3 O          27.7967   23.4366    1.1073 O.2       0 UNK        -0.5359 
      4 N          28.1904   21.4327    0.1386 N.am      1 UNK        -0.4318 
      5 CA         29.5448   21.6908   -0.3731 C.3       1 UNK         0.0824 
      6 C6         30.5646   22.0796    0.7415 C.3       12 UNK        -0.0944 
      7 S7         30.6210   20.8400    2.0803 S.3       12 UNK        -0.2672 
      8 C8         31.4575   21.7638    3.4139 C.3       12 UNK         0.0333 
      9 C9         30.5919   22.7731    4.1729 C.ar      12 UNK        -0.0807 
     10 C10        31.2172   23.8784    4.7578 C.ar      12 UNK        -0.0894 
     11 C11        30.4910   24.7983    5.5195 C.ar      12 UNK        -0.0804 
     12 C12        29.1232   24.5991    5.7147 C.ar      12 UNK        -0.0824 
     13 C13        28.4767   23.5045    5.1338 C.ar      12 UNK        -0.0762 
     14 C14        29.2141   22.5955    4.3641 C.ar      12 UNK        -0.0782 
     15 C15        26.9878   23.2884    5.3687 C.3       12 UNK         0.0230 
     16 S16        25.9703   23.9363    4.0053 S.3       12 UNK        -0.2608 
     17 C17        26.0851   25.7435    4.2307 C.3       12 UNK        -0.0989 
     18 CA         27.1785   26.4224    3.3559 C.3       5 UNK         0.0716 
     19 N          27.0909   26.0789    1.9318 N.am      5 UNK        -0.4135 
     20 C          26.1622   26.4508    1.0416 C.2       4 UNK         0.5031 
     21 O          25.1849   27.1509    1.3144 O.2       4 UNK        -0.5229 
     22 CA         26.4136   25.9888   -0.4133 C.3       4 UNK         0.0329 
     23 CB         25.5092   26.7108   -1.4346 C.3       4 UNK        -0.2001 
     24 N          27.8289   26.0923   -0.8150 N.am      4 UNK        -0.4303 
     25 C          28.5887   27.2010   -0.7694 C.2       3 UNK         0.5044 
     26 O          28.1633   28.2923   -0.3944 O.2       3 UNK        -0.5152 
     27 CA         30.0785   27.1004   -1.1489 C.3       3 UNK         0.0319 
     28 CB         30.9631   27.4432    0.0605 C.3       3 UNK        -0.2001 
     29 N          30.4759   25.7845   -1.6476 N.am      3 UNK        -0.4354 
     30 C          30.4118   25.3918   -2.9264 C.2       2 UNK         0.4964 
     31 O          30.0150   26.1071   -3.8466 O.2       2 UNK        -0.5047 
     32 CA         30.8628   23.9489   -3.2289 C.3       2 UNK         0.0288 
     33 CB         32.3282   23.9312   -3.6942 C.3       2 UNK        -0.2113 
     34 N          30.7028   23.0207   -2.0998 N.am      2 UNK        -0.4145 
     35 C          29.5223   22.6974   -1.5508 C.2       1 UNK         0.5006 
     36 O          28.4539   23.1609   -1.9624 O.2       1 UNK        -0.5103 
     37 C          27.2784   27.9413    3.6458 C.2       5 UNK         0.5055 
     38 O          26.9824   28.3537    4.7699 O.2       5 UNK        -0.5220 
     39 N          27.6811   28.7620    2.6624 N.am      6 UNK        -0.4450 
     40 CA         27.8162   30.2098    2.8201 C.3       6 UNK         0.0367 
     41 CB         27.8145   30.8898    1.4411 C.3       6 UNK        -0.1929 
     42 C          29.0813   30.5636    3.6152 C.2       6 UNK         0.5070 
     43 O          30.1753   30.5925    3.0485 O.2       6 UNK        -0.5237 
     44 N          28.9117   30.8689    4.9082 N.am      7 UNK        -0.4739 
     45 CA         29.9819   31.3272    5.8027 C.3       7 UNK         0.0276 
     46 CB         29.4364   31.4650    7.2321 C.3       7 UNK        -0.1927 
     47 C          30.6322   32.6416    5.3369 C.2       7 UNK         0.5013 
     48 O          31.8432   32.8042    5.4825 O.2       7 UNK        -0.5193 
     49 N          29.8316   33.5181    4.7127 N.am      8 UNK        -0.4253 
     50 CA         30.2711   34.7580    4.0657 C.3       8 UNK         0.0242 
     51 CB         29.0355   35.5692    3.6429 C.3       8 UNK        -0.2000 
     52 C          31.2065   34.5383    2.8601 C.2       8 UNK         0.4948 
     53 O          31.9797   35.4400    2.5362 O.2       8 UNK        -0.5275 
     54 N          31.1411   33.3542    2.2330 N.am      9 UNK        -0.4246 
     55 CA         32.0375   32.9293    1.1552 C.3       9 UNK         0.0261 
     56 CB         31.2415   32.0825    0.1459 C.3       9 UNK        -0.1959 
     57 C          33.2544   32.1440    1.6827 C.2       9 UNK         0.5033 
     58 O          34.0651   31.7030    0.8668 O.2       9 UNK        -0.5390 
     59 N          33.3613   31.9744    3.0122 N.am      10 UNK        -0.4215 
     60 CA         34.3711   31.1987    3.7383 C.3       10 UNK         0.0240 
     61 CB         35.7683   31.8424    3.6022 C.3       10 UNK        -0.1982 
     62 C          34.3417   29.7111    3.3440 C.2       10 UNK         0.4970 
     63 O          35.3409   29.1849    2.8487 O.2       10 UNK        -0.4916 
     64 N          33.1802   29.0744    3.5532 N.am      11 UNK        -0.4279 
     65 CA         32.9360   27.6460    3.3023 C.3       11 UNK         0.1003 
     66 C          33.9441   26.6827    3.9943 C.2       11 UNK         0.5709 
     67 N          34.2218   25.5371    3.3852 N.am      11 UNK        -0.7358 
     68 O          34.4508   26.9469    5.0834 O.2       11 UNK        -0.4999 
     69 C69        31.4606   27.2535    3.5928 C.3       12 UNK        -0.0954 
     70 S70        30.8713   27.5621    5.2961 S.3       12 UNK        -0.2268 
     71 C71        31.1936   25.9874    6.1594 C.3       12 UNK         0.0203 
     72 H72        25.3174   22.6584    1.1023 H         1 UNK         0.0888 
     73 H73        25.6825   21.0260    0.5431 H         1 UNK         0.0888 
     74 H74        26.0169   21.4811    2.2179 H         1 UNK         0.0888 
     75 H75        27.8129   20.5249   -0.0923 H         1 UNK         0.3017 
     76 H76        29.8765   20.7459   -0.8063 H         1 UNK         0.0873 
     77 H77        30.3292   23.0551    1.1702 H         1 UNK         0.0745 
     78 H78        31.5744   22.1617    0.3372 H         1 UNK         0.0745 
     79 H79        31.8376   21.0410    4.1368 H         1 UNK         0.0705 
     80 H80        32.3325   22.2595    2.9901 H         1 UNK         0.0705 
     81 H81        32.2817   24.0173    4.6317 H         1 UNK         0.1334 
     82 H82        28.5620   25.3033    6.3140 H         1 UNK         0.1417 
     83 H83        28.7122   21.7431    3.9283 H         1 UNK         0.1562 
     84 H84        26.6737   23.7429    6.3095 H         1 UNK         0.0748 
     85 H85        26.7898   22.2204    5.4712 H         1 UNK         0.0748 
     86 H86        26.2532   25.9453    5.2900 H         1 UNK         0.0940 
     87 H87        25.1073   26.1693    3.9988 H         1 UNK         0.0940 
     88 H88        28.1435   26.0247    3.6657 H         1 UNK         0.0703 
     89 H89        27.7521   25.3744    1.6176 H         1 UNK         0.3081 
     90 H90        26.1607   24.9284   -0.4463 H         1 UNK         0.0719 
     91 H91        25.6735   27.7889   -1.4288 H         1 UNK         0.0809 
     92 H92        25.6882   26.3490   -2.4470 H         1 UNK         0.0809 
     93 H93        24.4551   26.5411   -1.2119 H         1 UNK         0.0809 
     94 H94        28.2542   25.2248   -1.1210 H         1 UNK         0.2990 
     95 H95        30.2611   27.8497   -1.9222 H         1 UNK         0.0690 
     96 H96        32.0165   27.4804   -0.2173 H         1 UNK         0.0788 
     97 H97        30.8493   26.7028    0.8518 H         1 UNK         0.0788 
     98 H98        30.7077   28.4185    0.4789 H         1 UNK         0.0788 
     99 H99        30.8201   25.1261   -0.9648 H         1 UNK         0.2993 
    100 H100       30.2393   23.5842   -4.0484 H         1 UNK         0.0949 
    101 H101       32.6349   22.9321   -4.0048 H         1 UNK         0.0767 
    102 H102       32.4741   24.5924   -4.5498 H         1 UNK         0.0767 
    103 H103       33.0066   24.2630   -2.9070 H         1 UNK         0.0767 
    104 H104       31.5455   22.5918   -1.7450 H         1 UNK         0.3013 
    105 H105       27.8944   28.3848    1.7459 H         1 UNK         0.3121 
    106 H106       26.9456   30.5834    3.3637 H         1 UNK         0.0774 
    107 H107       27.8892   31.9735    1.5379 H         1 UNK         0.0815 
    108 H108       28.6515   30.5604    0.8261 H         1 UNK         0.0815 
    109 H109       26.8968   30.6732    0.8940 H         1 UNK         0.0815 
    110 H110       27.9918   30.7574    5.3129 H         1 UNK         0.2987 
    111 H111       30.7618   30.5631    5.8064 H         1 UNK         0.0949 
    112 H112       28.6300   32.1970    7.2904 H         1 UNK         0.0806 
    113 H113       29.0551   30.5132    7.6027 H         1 UNK         0.0806 
    114 H114       30.2204   31.7871    7.9190 H         1 UNK         0.0806 
    115 H115       28.8502   33.2912    4.6418 H         1 UNK         0.3010 
    116 H116       30.8272   35.3381    4.8053 H         1 UNK         0.0829 
    117 H117       28.4052   35.8099    4.4993 H         1 UNK         0.0813 
    118 H118       29.3280   36.5148    3.1838 H         1 UNK         0.0813 
    119 H119       28.4264   35.0297    2.9164 H         1 UNK         0.0813 
    120 H120       30.5128   32.6402    2.5836 H         1 UNK         0.3038 
    121 H121       32.4197   33.8064    0.6289 H         1 UNK         0.0769 
    122 H122       31.8400   31.8709   -0.7410 H         1 UNK         0.0811 
    123 H123       30.3402   32.5969   -0.1877 H         1 UNK         0.0811 
    124 H124       30.9472   31.1221    0.5692 H         1 UNK         0.0811 
    125 H125       32.6460   32.3863    3.6010 H         1 UNK         0.3204 
    126 H126       34.0950   31.2434    4.7930 H         1 UNK         0.0748 
    127 H127       36.4999   31.3154    4.2160 H         1 UNK         0.0771 
    128 H128       36.1318   31.8196    2.5744 H         1 UNK         0.0771 
    129 H129       35.7583   32.8816    3.9308 H         1 UNK         0.0771 
    130 H130       32.3950   29.5896    3.9244 H         1 UNK         0.2980 
    131 H131       33.0884   27.5221    2.2287 H         1 UNK         0.0545 
    132 H132       33.8243   25.3107    2.4877 H         1 UNK         0.3459 
    133 H133       34.8745   24.9029    3.8178 H         1 UNK         0.3459 
    134 H134       30.8097   27.8408    2.9449 H         1 UNK         0.0616 
    135 H135       31.2741   26.2176    3.3115 H         1 UNK         0.0616 
    136 H136       30.8563   26.0877    7.1919 H         1 UNK         0.0634 
    137 H137       32.2680   25.8141    6.2159 H         1 UNK         0.0634 
@<TRIPOS>BOND
     1    1    2 1    
     2    1   72 1    
     3    1   73 1    
     4    1   74 1    
     5    2    3 2    
     6    2    4 am   BACKBONE|DICT|INTERRES
     7    4    5 1    
     8    4   75 1    
     9    5    6 1    
    10    5   35 1    
    11    5   76 1    
    12    6    7 1    
    13    6   77 1    
    14    6   78 1    
    15    7    8 1    
    16    8    9 1    
    17    8   79 1    
    18    8   80 1    
    19    9   10 ar   
    20    9   14 ar   
    21   10   11 ar   
    22   10   81 1    
    23   11   12 ar   
    24   11   71 1    
    25   12   13 ar   
    26   12   82 1    
    27   13   14 ar   
    28   13   15 1    
    29   14   83 1    
    30   15   16 1    
    31   15   84 1    
    32   15   85 1    
    33   16   17 1    
    34   17   18 1    
    35   17   86 1    
    36   17   87 1    
    37   18   19 1    
    38   18   37 1    
    39   18   88 1    
    40   19   20 am   BACKBONE|DICT|INTERRES
    41   19   89 1    
    42   20   21 2    
    43   20   22 1    
    44   22   23 1    
    45   22   24 1    
    46   22   90 1    
    47   23   91 1    
    48   23   92 1    
    49   23   93 1    
    50   24   25 am   BACKBONE|DICT|INTERRES
    51   24   94 1    
    52   25   26 2    
    53   25   27 1    
    54   27   28 1    
    55   27   29 1    
    56   27   95 1    
    57   28   96 1    
    58   28   97 1    
    59   28   98 1    
    60   29   30 am   BACKBONE|DICT|INTERRES
    61   29   99 1    
    62   30   31 2    
    63   30   32 1    
    64   32   33 1    
    65   32   34 1    
    66   32  100 1    
    67   33  101 1    
    68   33  102 1    
    69   33  103 1    
    70   34   35 am   BACKBONE|DICT|INTERRES
    71   34  104 1    
    72   35   36 2    
    73   37   38 2    
    74   37   39 am   BACKBONE|DICT|INTERRES
    75   39   40 1    
    76   39  105 1    
    77   40   41 1    
    78   40   42 1    
    79   40  106 1    
    80   41  107 1    
    81   41  108 1    
    82   41  109 1    
    83   42   43 2    
    84   42   44 am   BACKBONE|DICT|INTERRES
    85   44   45 1    
    86   44  110 1    
    87   45   46 1    
    88   45   47 1    
    89   45  111 1    
    90   46  112 1    
    91   46  113 1    
    92   46  114 1    
    93   47   48 2    
    94   47   49 am   BACKBONE|DICT|INTERRES
    95   49   50 1    
    96   49  115 1    
    97   50   51 1    
    98   50   52 1    
    99   50  116 1    
   100   51  117 1    
   101   51  118 1    
   102   51  119 1    
   103   52   53 2    
   104   52   54 am   BACKBONE|DICT|INTERRES
   105   54   55 1    
   106   54  120 1    
   107   55   56 1    
   108   55   57 1    
   109   55  121 1    
   110   56  122 1    
   111   56  123 1    
   112   56  124 1    
   113   57   58 2    
   114   57   59 am   BACKBONE|DICT|INTERRES
   115   59   60 1    
   116   59  125 1    
   117   60   61 1    
   118   60   62 1    
   119   60  126 1    
   120   61  127 1    
   121   61  128 1    
   122   61  129 1    
   123   62   63 2    
   124   62   64 am   BACKBONE|DICT|INTERRES
   125   64   65 1    
   126   64  130 1    
   127   65   66 1    
   128   65   69 1    
   129   65  131 1    
   130   66   67 am   BACKBONE|DICT|INTERRES
   131   66   68 2    
   132   67  132 1    
   133   67  133 1    
   134   69   70 1    
   135   69  134 1    
   136   69  135 1    
   137   70   71 1    
   138   71  136 1    
   139   71  137 1    
@<TRIPOS>SUBSTRUCTURE
     1 UNK         1 GROUP             0       ****    0 ROOT    
