@<TRIPOS>MOLECULE
3R136
137   139    1
SMALL
USER_CHARGES


@<TRIPOS>ATOM
      1 CA         27.7694   29.3753   -2.5349 C.3       0 UNK        -0.1979 
      2 C          28.2372   27.9435   -2.3241 C.2       0 UNK         0.4864 
      3 O          27.7529   27.0396   -3.0080 O.2       0 UNK        -0.5359 
      4 N          29.1689   27.7341   -1.3811 N.am      1 UNK        -0.4318 
      5 CA         29.7646   26.4459   -1.0059 C.3       1 UNK         0.0824 
      6 C6         30.7770   25.9574   -2.0821 C.3       12 UNK        -0.0944 
      7 S7         31.7521   24.4723   -1.6534 S.3       12 UNK        -0.2672 
      8 C8         32.7014   25.0211   -0.1938 C.3       12 UNK         0.0333 
      9 C9         32.1366   24.6041    1.1688 C.ar      12 UNK        -0.0807 
     10 C10        32.6395   25.2432    2.3070 C.ar      12 UNK        -0.0894 
     11 C11        32.2472   24.8513    3.5941 C.ar      12 UNK        -0.0804 
     12 C12        31.3331   23.8045    3.7288 C.ar      12 UNK        -0.0824 
     13 C13        30.8062   23.1577    2.6075 C.ar      12 UNK        -0.0762 
     14 C14        31.2097   23.5621    1.3302 C.ar      12 UNK        -0.0782 
     15 C15        29.8488   21.9834    2.7881 C.3       12 UNK         0.0230 
     16 S16        28.0927   22.4689    2.7070 S.3       12 UNK        -0.2608 
     17 C17        27.9382   23.6134    4.1198 C.3       12 UNK        -0.0989 
     18 CA         28.0073   25.0837    3.6302 C.3       5 UNK         0.0716 
     19 N          26.8670   25.4808    2.7903 N.am      5 UNK        -0.4135 
     20 C          25.5924   25.6346    3.1771 C.2       4 UNK         0.5031 
     21 O          25.1921   25.3913    4.3157 O.2       4 UNK        -0.5229 
     22 CA         24.5965   26.2031    2.1541 C.3       4 UNK         0.0329 
     23 CB         24.4927   27.7324    2.3018 C.3       4 UNK        -0.2001 
     24 N          24.9103   25.8630    0.7615 N.am      4 UNK        -0.4303 
     25 C          23.9813   25.6725   -0.1888 C.2       3 UNK         0.5044 
     26 O          22.7695   25.7626    0.0150 O.2       3 UNK        -0.5152 
     27 CA         24.4612   25.3345   -1.6157 C.3       3 UNK         0.0319 
     28 CB         24.4168   26.5902   -2.5009 C.3       3 UNK        -0.2001 
     29 N          25.8060   24.7581   -1.6688 N.am      3 UNK        -0.4354 
     30 C          26.1452   23.5662   -1.1548 C.2       2 UNK         0.4964 
     31 O          25.3270   22.7715   -0.6911 O.2       2 UNK        -0.5047 
     32 CA         27.6404   23.1941   -1.1210 C.3       2 UNK         0.0288 
     33 CB         27.9478   22.0982   -2.1544 C.3       2 UNK        -0.2113 
     34 N          28.5800   24.3020   -1.3197 N.am      2 UNK        -0.4145 
     35 C          28.6620   25.4374   -0.6117 C.2       1 UNK         0.5006 
     36 O          27.8821   25.7357    0.2959 O.2       1 UNK        -0.5103 
     37 C          28.3339   26.1118    4.7384 C.2       5 UNK         0.5055 
     38 O          28.9556   25.7733    5.7465 O.2       5 UNK        -0.5220 
     39 N          27.9504   27.3683    4.4908 N.am      6 UNK        -0.4450 
     40 CA         28.2620   28.5597    5.2740 C.3       6 UNK         0.0367 
     41 CB         27.2424   28.7273    6.4168 C.3       6 UNK        -0.1929 
     42 C          28.3072   29.7623    4.3157 C.2       6 UNK         0.5070 
     43 O          27.8050   30.8378    4.6425 O.2       6 UNK        -0.5237 
     44 N          28.8562   29.5332    3.1150 N.am      7 UNK        -0.4739 
     45 CA         28.8522   30.4628    1.9889 C.3       7 UNK         0.0276 
     46 CB         27.6054   30.2116    1.1170 C.3       7 UNK        -0.1927 
     47 C          30.1685   30.3179    1.2165 C.2       7 UNK         0.5013 
     48 O          30.1666   29.9279    0.0483 O.2       7 UNK        -0.5193 
     49 N          31.2741   30.6050    1.9047 N.am      8 UNK        -0.4253 
     50 CA         32.6332   30.6664    1.3772 C.3       8 UNK         0.0242 
     51 CB         33.2315   29.2529    1.2443 C.3       8 UNK        -0.2000 
     52 C          33.4456   31.5400    2.3392 C.2       8 UNK         0.4948 
     53 O          33.0206   31.7305    3.4827 O.2       8 UNK        -0.5275 
     54 N          34.6013   32.0409    1.8840 N.am      9 UNK        -0.4246 
     55 CA         35.4494   33.0009    2.6081 C.3       9 UNK         0.0261 
     56 CB         36.6700   33.3542    1.7423 C.3       9 UNK        -0.1959 
     57 C          35.9014   32.5564    4.0134 C.2       9 UNK         0.5033 
     58 O          36.0557   33.4068    4.8912 O.2       9 UNK        -0.5390 
     59 N          36.0890   31.2445    4.2018 N.am      10 UNK        -0.4215 
     60 CA         36.4471   30.6257    5.4804 C.3       10 UNK         0.0240 
     61 CB         37.4828   29.5199    5.2085 C.3       10 UNK        -0.1982 
     62 C          35.2347   30.0441    6.2345 C.2       10 UNK         0.4970 
     63 O          35.4158   29.5829    7.3626 O.2       10 UNK        -0.4916 
     64 N          34.0489   30.0322    5.6106 N.am      11 UNK        -0.4279 
     65 CA         32.8482   29.3290    6.0966 C.3       11 UNK         0.1003 
     66 C          31.6945   30.2890    6.4898 C.2       11 UNK         0.5709 
     67 N          31.6128   31.4920    5.9358 N.am      11 UNK        -0.7358 
     68 O          30.8643   29.9385    7.3238 O.2       11 UNK        -0.4999 
     69 C69        32.3580   28.2682    5.0725 C.3       12 UNK        -0.0954 
     70 S70        33.6732   27.0694    4.6594 S.3       12 UNK        -0.2268 
     71 C71        32.8452   25.4563    4.8669 C.3       12 UNK         0.0203 
     72 H72        26.7654   29.5049   -2.1322 H         1 UNK         0.0888 
     73 H73        28.4299   30.0929   -2.0491 H         1 UNK         0.0888 
     74 H74        27.7443   29.6097   -3.5987 H         1 UNK         0.0888 
     75 H75        29.5184   28.5370   -0.8568 H         1 UNK         0.3017 
     76 H76        30.3209   26.6408   -0.0883 H         1 UNK         0.0873 
     77 H77        31.4872   26.7581   -2.2957 H         1 UNK         0.0745 
     78 H78        30.2679   25.7677   -3.0288 H         1 UNK         0.0745 
     79 H79        33.7051   24.6023   -0.2772 H         1 UNK         0.0705 
     80 H80        32.8236   26.1047   -0.2321 H         1 UNK         0.0705 
     81 H81        33.3762   26.0234    2.1791 H         1 UNK         0.1334 
     82 H82        31.0473   23.4766    4.7190 H         1 UNK         0.1417 
     83 H83        30.8208   23.0343    0.4710 H         1 UNK         0.1562 
     84 H84        30.0375   21.4825    3.7390 H         1 UNK         0.0748 
     85 H85        30.0382   21.2368    2.0154 H         1 UNK         0.0748 
     86 H86        28.7199   23.3857    4.8446 H         1 UNK         0.0940 
     87 H87        26.9964   23.4195    4.6348 H         1 UNK         0.0940 
     88 H88        28.8684   25.1593    2.9652 H         1 UNK         0.0703 
     89 H89        27.1284   25.6715    1.8237 H         1 UNK         0.3081 
     90 H90        23.6280   25.7696    2.4138 H         1 UNK         0.0719 
     91 H91        23.6872   28.1356    1.6878 H         1 UNK         0.0809 
     92 H92        25.4173   28.2283    2.0064 H         1 UNK         0.0809 
     93 H93        24.2826   28.0158    3.3343 H         1 UNK         0.0809 
     94 H94        25.8871   25.7624    0.5076 H         1 UNK         0.2990 
     95 H95        23.7672   24.5998   -2.0293 H         1 UNK         0.0690 
     96 H96        24.7156   26.3669   -3.5254 H         1 UNK         0.0788 
     97 H97        25.0758   27.3723   -2.1225 H         1 UNK         0.0788 
     98 H98        23.4086   27.0050   -2.5403 H         1 UNK         0.0788 
     99 H99        26.5377   25.3498   -2.0455 H         1 UNK         0.2993 
    100 H100       27.8361   22.7871   -0.1291 H         1 UNK         0.0949 
    101 H101       27.8038   22.4561   -3.1747 H         1 UNK         0.0767 
    102 H102       28.9747   21.7429   -2.0632 H         1 UNK         0.0767 
    103 H103       27.2961   21.2341   -2.0162 H         1 UNK         0.0767 
    104 H104       29.2721   24.1685   -2.0441 H         1 UNK         0.3013 
    105 H105       27.4361   27.5415    3.6387 H         1 UNK         0.3121 
    106 H106       29.2566   28.4540    5.7078 H         1 UNK         0.0774 
    107 H107       27.4835   29.5972    7.0291 H         1 UNK         0.0815 
    108 H108       26.2297   28.8619    6.0351 H         1 UNK         0.0815 
    109 H109       27.2402   27.8596    7.0765 H         1 UNK         0.0815 
    110 H110       29.3065   28.6441    2.9462 H         1 UNK         0.2987 
    111 H111       28.8138   31.4920    2.3536 H         1 UNK         0.0949 
    112 H112       27.5703   29.1874    0.7439 H         1 UNK         0.0806 
    113 H113       26.6892   30.3954    1.6781 H         1 UNK         0.0806 
    114 H114       27.5909   30.8787    0.2545 H         1 UNK         0.0806 
    115 H115       31.1978   30.9429    2.8572 H         1 UNK         0.3010 
    116 H116       32.6119   31.1526    0.3994 H         1 UNK         0.0829 
    117 H117       32.6214   28.6205    0.5993 H         1 UNK         0.0813 
    118 H118       34.2294   29.2885    0.8061 H         1 UNK         0.0813 
    119 H119       33.3195   28.7564    2.2091 H         1 UNK         0.0813 
    120 H120       34.8837   31.8191    0.9396 H         1 UNK         0.3038 
    121 H121       34.8566   33.9083    2.7412 H         1 UNK         0.0769 
    122 H122       37.3071   34.0842    2.2440 H         1 UNK         0.0811 
    123 H123       36.3698   33.7922    0.7902 H         1 UNK         0.0811 
    124 H124       37.2835   32.4773    1.5316 H         1 UNK         0.0811 
    125 H125       35.9471   30.6237    3.4179 H         1 UNK         0.3204 
    126 H126       36.9095   31.3657    6.1370 H         1 UNK         0.0748 
    127 H127       37.8211   29.0610    6.1387 H         1 UNK         0.0771 
    128 H128       37.0709   28.7251    4.5849 H         1 UNK         0.0771 
    129 H129       38.3656   29.9177    4.7076 H         1 UNK         0.0771 
    130 H130       33.9412   30.5267    4.7333 H         1 UNK         0.2980 
    131 H131       33.0944   28.7871    7.0117 H         1 UNK         0.0545 
    132 H132       30.8664   32.1098    6.2102 H         1 UNK         0.3459 
    133 H133       32.2470   31.7630    5.1908 H         1 UNK         0.3459 
    134 H134       32.0209   28.7463    4.1523 H         1 UNK         0.0616 
    135 H135       31.4959   27.7303    5.4685 H         1 UNK         0.0616 
    136 H136       33.5879   24.7541    5.2472 H         1 UNK         0.0634 
    137 H137       32.0808   25.5340    5.6415 H         1 UNK         0.0634 
@<TRIPOS>BOND
     1    1    2 1    
     2    1   72 1    
     3    1   73 1    
     4    1   74 1    
     5    2    3 2    
     6    2    4 am   BACKBONE|DICT|INTERRES
     7    4    5 1    
     8    4   75 1    
     9    5    6 1    
    10    5   35 1    
    11    5   76 1    
    12    6    7 1    
    13    6   77 1    
    14    6   78 1    
    15    7    8 1    
    16    8    9 1    
    17    8   79 1    
    18    8   80 1    
    19    9   10 ar   
    20    9   14 ar   
    21   10   11 ar   
    22   10   81 1    
    23   11   12 ar   
    24   11   71 1    
    25   12   13 ar   
    26   12   82 1    
    27   13   14 ar   
    28   13   15 1    
    29   14   83 1    
    30   15   16 1    
    31   15   84 1    
    32   15   85 1    
    33   16   17 1    
    34   17   18 1    
    35   17   86 1    
    36   17   87 1    
    37   18   19 1    
    38   18   37 1    
    39   18   88 1    
    40   19   20 am   BACKBONE|DICT|INTERRES
    41   19   89 1    
    42   20   21 2    
    43   20   22 1    
    44   22   23 1    
    45   22   24 1    
    46   22   90 1    
    47   23   91 1    
    48   23   92 1    
    49   23   93 1    
    50   24   25 am   BACKBONE|DICT|INTERRES
    51   24   94 1    
    52   25   26 2    
    53   25   27 1    
    54   27   28 1    
    55   27   29 1    
    56   27   95 1    
    57   28   96 1    
    58   28   97 1    
    59   28   98 1    
    60   29   30 am   BACKBONE|DICT|INTERRES
    61   29   99 1    
    62   30   31 2    
    63   30   32 1    
    64   32   33 1    
    65   32   34 1    
    66   32  100 1    
    67   33  101 1    
    68   33  102 1    
    69   33  103 1    
    70   34   35 am   BACKBONE|DICT|INTERRES
    71   34  104 1    
    72   35   36 2    
    73   37   38 2    
    74   37   39 am   BACKBONE|DICT|INTERRES
    75   39   40 1    
    76   39  105 1    
    77   40   41 1    
    78   40   42 1    
    79   40  106 1    
    80   41  107 1    
    81   41  108 1    
    82   41  109 1    
    83   42   43 2    
    84   42   44 am   BACKBONE|DICT|INTERRES
    85   44   45 1    
    86   44  110 1    
    87   45   46 1    
    88   45   47 1    
    89   45  111 1    
    90   46  112 1    
    91   46  113 1    
    92   46  114 1    
    93   47   48 2    
    94   47   49 am   BACKBONE|DICT|INTERRES
    95   49   50 1    
    96   49  115 1    
    97   50   51 1    
    98   50   52 1    
    99   50  116 1    
   100   51  117 1    
   101   51  118 1    
   102   51  119 1    
   103   52   53 2    
   104   52   54 am   BACKBONE|DICT|INTERRES
   105   54   55 1    
   106   54  120 1    
   107   55   56 1    
   108   55   57 1    
   109   55  121 1    
   110   56  122 1    
   111   56  123 1    
   112   56  124 1    
   113   57   58 2    
   114   57   59 am   BACKBONE|DICT|INTERRES
   115   59   60 1    
   116   59  125 1    
   117   60   61 1    
   118   60   62 1    
   119   60  126 1    
   120   61  127 1    
   121   61  128 1    
   122   61  129 1    
   123   62   63 2    
   124   62   64 am   BACKBONE|DICT|INTERRES
   125   64   65 1    
   126   64  130 1    
   127   65   66 1    
   128   65   69 1    
   129   65  131 1    
   130   66   67 am   BACKBONE|DICT|INTERRES
   131   66   68 2    
   132   67  132 1    
   133   67  133 1    
   134   69   70 1    
   135   69  134 1    
   136   69  135 1    
   137   70   71 1    
   138   71  136 1    
   139   71  137 1    
@<TRIPOS>SUBSTRUCTURE
     1 UNK         1 GROUP             0       ****    0 ROOT    
