@<TRIPOS>MOLECULE
3R136
137   139    1
SMALL
USER_CHARGES


@<TRIPOS>ATOM
      1 CA         30.8911   23.4384   -4.3642 C.3       0 UNK        -0.1979 
      2 C          30.5219   24.7677   -3.7219 C.2       0 UNK         0.4864 
      3 O          30.5155   25.7946   -4.4032 O.2       0 UNK        -0.5359 
      4 N          30.2233   24.7557   -2.4166 N.am      1 UNK        -0.4318 
      5 CA         29.7900   25.9269   -1.6475 C.3       1 UNK         0.0824 
      6 C6         30.0099   25.7178   -0.1278 C.3       12 UNK        -0.0944 
      7 S7         31.7667   25.9805    0.2838 S.3       12 UNK        -0.2672 
      8 C8         32.3494   24.3103    0.7257 C.3       12 UNK         0.0333 
      9 C9         32.2473   24.0229    2.2199 C.ar      12 UNK        -0.0807 
     10 C10        32.7486   24.9397    3.1511 C.ar      12 UNK        -0.0894 
     11 C11        32.6941   24.6710    4.5201 C.ar      12 UNK        -0.0804 
     12 C12        32.1363   23.4687    4.9606 C.ar      12 UNK        -0.0824 
     13 C13        31.6209   22.5456    4.0444 C.ar      12 UNK        -0.0762 
     14 C14        31.6908   22.8219    2.6741 C.ar      12 UNK        -0.0782 
     15 C15        30.9697   21.2610    4.5432 C.3       12 UNK         0.0230 
     16 S16        29.1528   21.2790    4.3594 S.3       12 UNK        -0.2608 
     17 C17        28.6997   22.8584    5.1574 C.3       12 UNK        -0.0989 
     18 CA         28.4212   23.9524    4.0885 C.3       5 UNK         0.0716 
     19 N          27.2080   23.7094    3.3077 N.am      5 UNK        -0.4135 
     20 C          25.9436   23.7163    3.7447 C.2       4 UNK         0.5031 
     21 O          25.6075   23.8891    4.9179 O.2       4 UNK        -0.5229 
     22 CA         24.8695   23.5340    2.6555 C.3       4 UNK         0.0329 
     23 CB         23.5878   22.8849    3.2093 C.3       4 UNK        -0.2001 
     24 N          24.5223   24.8068    2.0184 N.am      4 UNK        -0.4303 
     25 C          25.3506   25.5702    1.2929 C.2       3 UNK         0.5044 
     26 O          26.5211   25.2661    1.0405 O.2       3 UNK        -0.5152 
     27 CA         24.7624   26.8879    0.7691 C.3       3 UNK         0.0319 
     28 CB         24.4525   27.8613    1.9191 C.3       3 UNK        -0.2001 
     29 N          25.7295   27.5161   -0.1247 N.am      3 UNK        -0.4354 
     30 C          25.5477   27.7321   -1.4308 C.2       2 UNK         0.4964 
     31 O          24.4841   27.5414   -2.0228 O.2       2 UNK        -0.5047 
     32 CA         26.7632   28.2436   -2.2195 C.3       2 UNK         0.0288 
     33 CB         26.8981   29.7685   -2.0712 C.3       2 UNK        -0.2113 
     34 N          28.0302   27.6115   -1.8415 N.am      2 UNK        -0.4145 
     35 C          28.3341   26.3129   -1.9878 C.2       1 UNK         0.5006 
     36 O          27.5422   25.4582   -2.3957 O.2       1 UNK        -0.5103 
     37 C          28.4677   25.3946    4.6322 C.2       5 UNK         0.5055 
     38 O          28.6325   25.5954    5.8365 O.2       5 UNK        -0.5220 
     39 N          28.3343   26.3682    3.7207 N.am      6 UNK        -0.4450 
     40 CA         28.6024   27.7861    3.9473 C.3       6 UNK         0.0367 
     41 CB         27.5221   28.4295    4.8383 C.3       6 UNK        -0.1929 
     42 C          28.6901   28.4972    2.5920 C.2       6 UNK         0.5070 
     43 O          27.9426   28.1584    1.6713 O.2       6 UNK        -0.5237 
     44 N          29.5789   29.4868    2.5020 N.am      7 UNK        -0.4739 
     45 CA         29.7925   30.3654    1.3547 C.3       7 UNK         0.0276 
     46 CB         30.5115   29.6034    0.2247 C.3       7 UNK        -0.1927 
     47 C          30.6071   31.5817    1.8189 C.2       7 UNK         0.5013 
     48 O          31.0388   31.6245    2.9750 O.2       7 UNK        -0.5193 
     49 N          30.8136   32.5502    0.9149 N.am      8 UNK        -0.4253 
     50 CA         31.6406   33.7405    1.1424 C.3       8 UNK         0.0242 
     51 CB         31.6077   34.6355   -0.1072 C.3       8 UNK        -0.2000 
     52 C          33.0858   33.3536    1.5009 C.2       8 UNK         0.4948 
     53 O          33.7104   32.5983    0.7521 O.2       8 UNK        -0.5275 
     54 N          33.5582   33.8230    2.6643 N.am      9 UNK        -0.4246 
     55 CA         34.8237   33.4953    3.3423 C.3       9 UNK         0.0261 
     56 CB         36.0490   33.8808    2.4902 C.3       9 UNK        -0.1959 
     57 C          34.9227   32.0367    3.8342 C.2       9 UNK         0.5033 
     58 O          35.3589   31.8116    4.9649 O.2       9 UNK        -0.5390 
     59 N          34.5070   31.0736    3.0041 N.am      10 UNK        -0.4215 
     60 CA         34.4584   29.6411    3.2939 C.3       10 UNK         0.0240 
     61 CB         34.4256   28.8654    1.9652 C.3       10 UNK        -0.1982 
     62 C          33.2838   29.2851    4.2262 C.2       10 UNK         0.4970 
     63 O          32.3028   28.6891    3.7835 O.2       10 UNK        -0.4916 
     64 N          33.4301   29.6734    5.4981 N.am      11 UNK        -0.4279 
     65 CA         32.5821   29.3705    6.6643 C.3       11 UNK         0.1003 
     66 C          31.1008   29.8591    6.6345 C.2       11 UNK         0.5709 
     67 N          30.6584   30.6315    5.6517 N.am      11 UNK        -0.7358 
     68 O          30.3446   29.5837    7.5631 O.2       11 UNK        -0.4999 
     69 C69        32.7688   27.9161    7.1955 C.3       12 UNK        -0.0954 
     70 S70        31.8693   26.6176    6.2815 S.3       12 UNK        -0.2268 
     71 C71        33.2290   25.6839    5.5208 C.3       12 UNK         0.0203 
     72 H72        30.1911   23.2021   -5.1653 H         1 UNK         0.0888 
     73 H73        31.8923   23.4929   -4.7908 H         1 UNK         0.0888 
     74 H74        30.8732   22.6190   -3.6458 H         1 UNK         0.0888 
     75 H75        30.2115   23.8775   -1.9199 H         1 UNK         0.3017 
     76 H76        30.4070   26.7704   -1.9678 H         1 UNK         0.0873 
     77 H77        29.4376   26.4357    0.4582 H         1 UNK         0.0745 
     78 H78        29.6714   24.7329    0.1984 H         1 UNK         0.0745 
     79 H79        31.8107   23.5653    0.1388 H         1 UNK         0.0705 
     80 H80        33.3975   24.2266    0.4357 H         1 UNK         0.0705 
     81 H81        33.1768   25.8714    2.8091 H         1 UNK         0.1334 
     82 H82        32.0837   23.2655    6.0217 H         1 UNK         0.1417 
     83 H83        31.2984   22.1044    1.9660 H         1 UNK         0.1562 
     84 H84        31.2161   21.0863    5.5918 H         1 UNK         0.0748 
     85 H85        31.3735   20.4112    3.9909 H         1 UNK         0.0748 
     86 H86        29.5026   23.1554    5.8332 H         1 UNK         0.0940 
     87 H87        27.8285   22.7013    5.7944 H         1 UNK         0.0940 
     88 H88        29.2362   23.9188    3.3657 H         1 UNK         0.0703 
     89 H89        27.3392   23.6682    2.3048 H         1 UNK         0.3081 
     90 H90        25.2728   22.8688    1.8887 H         1 UNK         0.0719 
     91 H91        23.0948   23.5213    3.9454 H         1 UNK         0.0809 
     92 H92        22.8725   22.6758    2.4136 H         1 UNK         0.0809 
     93 H93        23.8127   21.9360    3.6983 H         1 UNK         0.0809 
     94 H94        23.5862   25.1451    2.1875 H         1 UNK         0.2990 
     95 H95        23.8358   26.6539    0.2411 H         1 UNK         0.0690 
     96 H96        24.0338   28.7940    1.5409 H         1 UNK         0.0788 
     97 H97        25.3497   28.1083    2.4848 H         1 UNK         0.0788 
     98 H98        23.7273   27.4428    2.6176 H         1 UNK         0.0788 
     99 H99        26.6487   27.6667    0.2854 H         1 UNK         0.2993 
    100 H100       26.5859   28.0158   -3.2729 H         1 UNK         0.0949 
    101 H101       25.9751   30.2720   -2.3629 H         1 UNK         0.0767 
    102 H102       27.1146   30.0558   -1.0411 H         1 UNK         0.0767 
    103 H103       27.6934   30.1615   -2.7049 H         1 UNK         0.0767 
    104 H104       28.7391   28.2321   -1.4824 H         1 UNK         0.3013 
    105 H105       28.1354   26.1342    2.7541 H         1 UNK         0.3121 
    106 H106       29.5726   27.8735    4.4425 H         1 UNK         0.0774 
    107 H107       27.6555   29.5103    4.8974 H         1 UNK         0.0815 
    108 H108       26.5189   28.2417    4.4586 H         1 UNK         0.0815 
    109 H109       27.5690   28.0486    5.8582 H         1 UNK         0.0815 
    110 H110       30.1844   29.6936    3.2901 H         1 UNK         0.2987 
    111 H111       28.8229   30.7221    1.0013 H         1 UNK         0.0949 
    112 H112       30.6942   30.2390   -0.6419 H         1 UNK         0.0806 
    113 H113       31.4725   29.2150    0.5574 H         1 UNK         0.0806 
    114 H114       29.9231   28.7564   -0.1174 H         1 UNK         0.0806 
    115 H115       30.4447   32.4320   -0.0170 H         1 UNK         0.3010 
    116 H116       31.2006   34.2943    1.9745 H         1 UNK         0.0829 
    117 H117       30.5922   34.9546   -0.3423 H         1 UNK         0.0813 
    118 H118       32.2028   35.5373    0.0440 H         1 UNK         0.0813 
    119 H119       32.0110   34.1229   -0.9817 H         1 UNK         0.0813 
    120 H120       32.9346   34.4025    3.2101 H         1 UNK         0.3038 
    121 H121       34.8432   34.1216    4.2358 H         1 UNK         0.0769 
    122 H122       36.1262   33.2796    1.5840 H         1 UNK         0.0811 
    123 H123       36.9724   33.7346    3.0523 H         1 UNK         0.0811 
    124 H124       36.0124   34.9293    2.1949 H         1 UNK         0.0811 
    125 H125       34.1529   31.3747    2.0988 H         1 UNK         0.3204 
    126 H126       35.3792   29.3609    3.8102 H         1 UNK         0.0748 
    127 H127       35.3206   29.0570    1.3734 H         1 UNK         0.0771 
    128 H128       34.3767   27.7902    2.1381 H         1 UNK         0.0771 
    129 H129       33.5630   29.1398    1.3606 H         1 UNK         0.0771 
    130 H130       34.2344   30.2594    5.6951 H         1 UNK         0.2980 
    131 H131       33.0177   30.0080    7.4342 H         1 UNK         0.0545 
    132 H132       29.7119   30.9699    5.6952 H         1 UNK         0.3459 
    133 H133       31.2425   30.8890    4.8652 H         1 UNK         0.3459 
    134 H134       33.8304   27.6671    7.2301 H         1 UNK         0.0616 
    135 H135       32.4311   27.8646    8.2318 H         1 UNK         0.0616 
    136 H136       33.9146   26.3768    5.0308 H         1 UNK         0.0634 
    137 H137       33.8001   25.1752    6.2986 H         1 UNK         0.0634 
@<TRIPOS>BOND
     1    1    2 1    
     2    1   72 1    
     3    1   73 1    
     4    1   74 1    
     5    2    3 2    
     6    2    4 am   BACKBONE|DICT|INTERRES
     7    4    5 1    
     8    4   75 1    
     9    5    6 1    
    10    5   35 1    
    11    5   76 1    
    12    6    7 1    
    13    6   77 1    
    14    6   78 1    
    15    7    8 1    
    16    8    9 1    
    17    8   79 1    
    18    8   80 1    
    19    9   10 ar   
    20    9   14 ar   
    21   10   11 ar   
    22   10   81 1    
    23   11   12 ar   
    24   11   71 1    
    25   12   13 ar   
    26   12   82 1    
    27   13   14 ar   
    28   13   15 1    
    29   14   83 1    
    30   15   16 1    
    31   15   84 1    
    32   15   85 1    
    33   16   17 1    
    34   17   18 1    
    35   17   86 1    
    36   17   87 1    
    37   18   19 1    
    38   18   37 1    
    39   18   88 1    
    40   19   20 am   BACKBONE|DICT|INTERRES
    41   19   89 1    
    42   20   21 2    
    43   20   22 1    
    44   22   23 1    
    45   22   24 1    
    46   22   90 1    
    47   23   91 1    
    48   23   92 1    
    49   23   93 1    
    50   24   25 am   BACKBONE|DICT|INTERRES
    51   24   94 1    
    52   25   26 2    
    53   25   27 1    
    54   27   28 1    
    55   27   29 1    
    56   27   95 1    
    57   28   96 1    
    58   28   97 1    
    59   28   98 1    
    60   29   30 am   BACKBONE|DICT|INTERRES
    61   29   99 1    
    62   30   31 2    
    63   30   32 1    
    64   32   33 1    
    65   32   34 1    
    66   32  100 1    
    67   33  101 1    
    68   33  102 1    
    69   33  103 1    
    70   34   35 am   BACKBONE|DICT|INTERRES
    71   34  104 1    
    72   35   36 2    
    73   37   38 2    
    74   37   39 am   BACKBONE|DICT|INTERRES
    75   39   40 1    
    76   39  105 1    
    77   40   41 1    
    78   40   42 1    
    79   40  106 1    
    80   41  107 1    
    81   41  108 1    
    82   41  109 1    
    83   42   43 2    
    84   42   44 am   BACKBONE|DICT|INTERRES
    85   44   45 1    
    86   44  110 1    
    87   45   46 1    
    88   45   47 1    
    89   45  111 1    
    90   46  112 1    
    91   46  113 1    
    92   46  114 1    
    93   47   48 2    
    94   47   49 am   BACKBONE|DICT|INTERRES
    95   49   50 1    
    96   49  115 1    
    97   50   51 1    
    98   50   52 1    
    99   50  116 1    
   100   51  117 1    
   101   51  118 1    
   102   51  119 1    
   103   52   53 2    
   104   52   54 am   BACKBONE|DICT|INTERRES
   105   54   55 1    
   106   54  120 1    
   107   55   56 1    
   108   55   57 1    
   109   55  121 1    
   110   56  122 1    
   111   56  123 1    
   112   56  124 1    
   113   57   58 2    
   114   57   59 am   BACKBONE|DICT|INTERRES
   115   59   60 1    
   116   59  125 1    
   117   60   61 1    
   118   60   62 1    
   119   60  126 1    
   120   61  127 1    
   121   61  128 1    
   122   61  129 1    
   123   62   63 2    
   124   62   64 am   BACKBONE|DICT|INTERRES
   125   64   65 1    
   126   64  130 1    
   127   65   66 1    
   128   65   69 1    
   129   65  131 1    
   130   66   67 am   BACKBONE|DICT|INTERRES
   131   66   68 2    
   132   67  132 1    
   133   67  133 1    
   134   69   70 1    
   135   69  134 1    
   136   69  135 1    
   137   70   71 1    
   138   71  136 1    
   139   71  137 1    
@<TRIPOS>SUBSTRUCTURE
     1 UNK         1 GROUP             0       ****    0 ROOT    
