@<TRIPOS>MOLECULE
3R136
137   139    1
SMALL
USER_CHARGES


@<TRIPOS>ATOM
      1 CA         34.4999   23.3264    0.8031 C.3       0 UNK        -0.1979 
      2 C          33.5736   24.5321    0.7829 C.2       0 UNK         0.4864 
      3 O          34.0466   25.6690    0.8199 O.2       0 UNK        -0.5359 
      4 N          32.2577   24.2972    0.7345 N.am      1 UNK        -0.4318 
      5 CA         31.2422   25.3455    0.6663 C.3       1 UNK         0.0824 
      6 C6         29.8812   24.9211    1.2734 C.3       12 UNK        -0.0944 
      7 S7         29.2323   23.2873    0.7471 S.3       12 UNK        -0.2672 
      8 C8         29.9301   22.1072    1.9601 C.3       12 UNK         0.0333 
      9 C9         29.8864   22.6423    3.3820 C.ar      12 UNK        -0.0807 
     10 C10        31.0491   23.1326    3.9806 C.ar      12 UNK        -0.0894 
     11 C11        30.9972   23.7437    5.2353 C.ar      12 UNK        -0.0804 
     12 C12        29.7738   23.8386    5.9076 C.ar      12 UNK        -0.0824 
     13 C13        28.6085   23.3204    5.3305 C.ar      12 UNK        -0.0762 
     14 C14        28.6749   22.7147    4.0712 C.ar      12 UNK        -0.0782 
     15 C15        27.2787   23.3925    6.0679 C.3       12 UNK         0.0230 
     16 S16        25.9736   24.1840    5.0707 S.3       12 UNK        -0.2608 
     17 C17        26.2741   25.9652    5.3410 C.3       12 UNK        -0.0989 
     18 CA         26.8472   26.7337    4.1159 C.3       5 UNK         0.0716 
     19 N          26.2345   26.3198    2.8438 N.am      5 UNK        -0.4135 
     20 C          26.5399   26.7974    1.6286 C.2       4 UNK         0.5031 
     21 O          27.3688   27.6860    1.4197 O.2       4 UNK        -0.5229 
     22 CA         25.7470   26.2153    0.4563 C.3       4 UNK         0.0329 
     23 CB         24.3897   26.9296    0.3147 C.3       4 UNK        -0.2001 
     24 N          26.5143   26.3600   -0.7799 N.am      4 UNK        -0.4303 
     25 C          26.3844   25.5763   -1.8561 C.2       3 UNK         0.5044 
     26 O          25.5791   24.6457   -1.9170 O.2       3 UNK        -0.5152 
     27 CA         27.2885   25.8357   -3.0772 C.3       3 UNK         0.0319 
     28 CB         26.5531   26.6690   -4.1460 C.3       3 UNK        -0.2001 
     29 N          28.6185   26.3846   -2.7782 N.am      3 UNK        -0.4354 
     30 C          28.9601   27.6129   -2.3666 C.2       2 UNK         0.4964 
     31 O          28.1511   28.5075   -2.1220 O.2       2 UNK        -0.5047 
     32 CA         30.4662   27.8430   -2.1376 C.3       2 UNK         0.0288 
     33 CB         30.8394   29.3337   -2.0445 C.3       2 UNK        -0.2113 
     34 N          30.8914   27.1725   -0.9113 N.am      2 UNK        -0.4145 
     35 C          31.0751   25.8549   -0.7744 C.2       1 UNK         0.5006 
     36 O          31.0502   25.0583   -1.7177 O.2       1 UNK        -0.5103 
     37 C          26.7035   28.2516    4.3651 C.2       5 UNK         0.5055 
     38 O          27.6404   28.8965    4.8391 O.2       5 UNK        -0.5220 
     39 N          25.5230   28.7857    4.0139 N.am      6 UNK        -0.4450 
     40 CA         25.1107   30.1824    4.1747 C.3       6 UNK         0.0367 
     41 CB         23.6203   30.3024    3.8151 C.3       6 UNK        -0.1929 
     42 C          25.9388   31.2019    3.3716 C.2       6 UNK         0.5070 
     43 O          25.8581   32.3941    3.6689 O.2       6 UNK        -0.5237 
     44 N          26.7257   30.7390    2.3886 N.am      7 UNK        -0.4739 
     45 CA         27.6762   31.5673    1.6426 C.3       7 UNK         0.0276 
     46 CB         28.1695   30.7899    0.4136 C.3       7 UNK        -0.1927 
     47 C          28.8714   32.0345    2.4951 C.2       7 UNK         0.5013 
     48 O          29.4936   33.0364    2.1412 O.2       7 UNK        -0.5193 
     49 N          29.1674   31.3070    3.5874 N.am      8 UNK        -0.4253 
     50 CA         30.2454   31.5525    4.5558 C.3       8 UNK         0.0242 
     51 CB         29.9661   32.8361    5.3661 C.3       8 UNK        -0.2000 
     52 C          31.6555   31.5364    3.9296 C.2       8 UNK         0.4948 
     53 O          32.5537   32.2305    4.4092 O.2       8 UNK        -0.5275 
     54 N          31.8282   30.7317    2.8769 N.am      9 UNK        -0.4246 
     55 CA         33.0610   30.5351    2.1269 C.3       9 UNK         0.0261 
     56 CB         33.1632   31.5947    1.0154 C.3       9 UNK        -0.1959 
     57 C          33.0031   29.1204    1.5306 C.2       9 UNK         0.5033 
     58 O          31.8956   28.6571    1.2525 O.2       9 UNK        -0.5390 
     59 N          34.1342   28.4335    1.3131 N.am      10 UNK        -0.4215 
     60 CA         35.5019   28.8296    1.6708 C.3       10 UNK         0.0240 
     61 CB         36.4916   28.0815    0.7630 C.3       10 UNK        -0.1982 
     62 C          35.8306   28.5583    3.1509 C.2       10 UNK         0.4970 
     63 O          36.7680   29.1597    3.6743 O.2       10 UNK        -0.4916 
     64 N          35.0559   27.6776    3.7967 N.am      11 UNK        -0.4279 
     65 CA         35.1761   27.3106    5.2165 C.3       11 UNK         0.1003 
     66 C          34.7291   28.3994    6.2375 C.2       11 UNK         0.5709 
     67 N          34.1040   29.4931    5.8199 N.am      11 UNK        -0.7358 
     68 O          34.9718   28.2539    7.4332 O.2       11 UNK        -0.4999 
     69 C69        34.5138   25.9360    5.4973 C.3       12 UNK        -0.0954 
     70 S70        32.7584   25.8489    5.0055 S.3       12 UNK        -0.2268 
     71 C71        32.2716   24.3084    5.8402 C.3       12 UNK         0.0203 
     72 H72        33.9480   22.3871    0.7752 H         1 UNK         0.0888 
     73 H73        35.1065   23.3374    1.7082 H         1 UNK         0.0888 
     74 H74        35.1687   23.3542   -0.0566 H         1 UNK         0.0888 
     75 H75        31.9095   23.3557    0.6337 H         1 UNK         0.3017 
     76 H76        31.5957   26.1772    1.2761 H         1 UNK         0.0873 
     77 H77        29.1213   25.6598    1.0183 H         1 UNK         0.0745 
     78 H78        29.9360   24.9824    2.3582 H         1 UNK         0.0745 
     79 H79        29.3701   21.1726    1.9048 H         1 UNK         0.0705 
     80 H80        30.9536   21.8608    1.6756 H         1 UNK         0.0705 
     81 H81        31.9909   23.0859    3.4512 H         1 UNK         0.1334 
     82 H82        29.7309   24.3125    6.8789 H         1 UNK         0.1417 
     83 H83        27.7744   22.3329    3.6092 H         1 UNK         0.1562 
     84 H84        27.3787   23.9084    7.0240 H         1 UNK         0.0748 
     85 H85        26.9629   22.3754    6.3041 H         1 UNK         0.0748 
     86 H86        25.3124   26.3845    5.6451 H         1 UNK         0.0940 
     87 H87        26.9336   26.0985    6.2007 H         1 UNK         0.0940 
     88 H88        27.9133   26.5086    4.0388 H         1 UNK         0.0703 
     89 H89        25.5546   25.5762    2.9196 H         1 UNK         0.3081 
     90 H90        25.5836   25.1534    0.6539 H         1 UNK         0.0719 
     91 H91        24.5168   27.9943    0.1136 H         1 UNK         0.0809 
     92 H92        23.7999   26.5051   -0.4979 H         1 UNK         0.0809 
     93 H93        23.7955   26.8360    1.2244 H         1 UNK         0.0809 
     94 H94        27.1861   27.1213   -0.7922 H         1 UNK         0.2990 
     95 H95        27.4844   24.8558   -3.5157 H         1 UNK         0.0690 
     96 H96        27.1644   26.7992   -5.0390 H         1 UNK         0.0788 
     97 H97        26.2799   27.6580   -3.7772 H         1 UNK         0.0788 
     98 H98        25.6303   26.1757   -4.4542 H         1 UNK         0.0788 
     99 H99        29.3753   25.7101   -2.8338 H         1 UNK         0.2993 
    100 H100       31.0047   27.4162   -2.9868 H         1 UNK         0.0949 
    101 H101       30.4985   29.8797   -2.9250 H         1 UNK         0.0767 
    102 H102       30.3946   29.8076   -1.1702 H         1 UNK         0.0767 
    103 H103       31.9195   29.4655   -1.9765 H         1 UNK         0.0767 
    104 H104       30.9975   27.7632   -0.0876 H         1 UNK         0.3013 
    105 H105       24.8322   28.1650    3.6184 H         1 UNK         0.3121 
    106 H106       25.2308   30.4383    5.2295 H         1 UNK         0.0774 
    107 H107       23.0050   29.6590    4.4442 H         1 UNK         0.0815 
    108 H108       23.4339   30.0357    2.7739 H         1 UNK         0.0815 
    109 H109       23.2642   31.3239    3.9575 H         1 UNK         0.0815 
    110 H110       26.7462   29.7437    2.2000 H         1 UNK         0.2987 
    111 H111       27.1511   32.4601    1.2958 H         1 UNK         0.0949 
    112 H112       27.3400   30.4659   -0.2152 H         1 UNK         0.0806 
    113 H113       28.7383   29.9031    0.6966 H         1 UNK         0.0806 
    114 H114       28.8192   31.4114   -0.2037 H         1 UNK         0.0806 
    115 H115       28.5822   30.5026    3.7905 H         1 UNK         0.3010 
    116 H116       30.2188   30.7127    5.2520 H         1 UNK         0.0829 
    117 H117       28.9710   32.8154    5.8107 H         1 UNK         0.0813 
    118 H118       30.6818   32.9490    6.1814 H         1 UNK         0.0813 
    119 H119       30.0378   33.7294    4.7449 H         1 UNK         0.0813 
    120 H120       31.0625   30.1481    2.5616 H         1 UNK         0.3038 
    121 H121       33.9035   30.6336    2.8109 H         1 UNK         0.0769 
    122 H122       32.3172   31.5373    0.3288 H         1 UNK         0.0811 
    123 H123       34.0714   31.4642    0.4263 H         1 UNK         0.0811 
    124 H124       33.1866   32.6026    1.4302 H         1 UNK         0.0811 
    125 H125       34.0501   27.4808    0.9575 H         1 UNK         0.3204 
    126 H126       35.6355   29.8964    1.4857 H         1 UNK         0.0748 
    127 H127       36.2960   28.2858   -0.2899 H         1 UNK         0.0771 
    128 H128       37.5185   28.3884    0.9667 H         1 UNK         0.0771 
    129 H129       36.4393   27.0018    0.9094 H         1 UNK         0.0771 
    130 H130       34.3088   27.2226    3.2920 H         1 UNK         0.2980 
    131 H131       36.2428   27.1790    5.4079 H         1 UNK         0.0545 
    132 H132       33.8362   30.1934    6.4930 H         1 UNK         0.3459 
    133 H133       33.9056   29.6313    4.8449 H         1 UNK         0.3459 
    134 H134       35.0487   25.1590    4.9490 H         1 UNK         0.0616 
    135 H135       34.6061   25.6695    6.5520 H         1 UNK         0.0616 
    136 H136       32.1488   24.4992    6.9074 H         1 UNK         0.0634 
    137 H137       33.0701   23.5710    5.7441 H         1 UNK         0.0634 
@<TRIPOS>BOND
     1    1    2 1    
     2    1   72 1    
     3    1   73 1    
     4    1   74 1    
     5    2    3 2    
     6    2    4 am   BACKBONE|DICT|INTERRES
     7    4    5 1    
     8    4   75 1    
     9    5    6 1    
    10    5   35 1    
    11    5   76 1    
    12    6    7 1    
    13    6   77 1    
    14    6   78 1    
    15    7    8 1    
    16    8    9 1    
    17    8   79 1    
    18    8   80 1    
    19    9   10 ar   
    20    9   14 ar   
    21   10   11 ar   
    22   10   81 1    
    23   11   12 ar   
    24   11   71 1    
    25   12   13 ar   
    26   12   82 1    
    27   13   14 ar   
    28   13   15 1    
    29   14   83 1    
    30   15   16 1    
    31   15   84 1    
    32   15   85 1    
    33   16   17 1    
    34   17   18 1    
    35   17   86 1    
    36   17   87 1    
    37   18   19 1    
    38   18   37 1    
    39   18   88 1    
    40   19   20 am   BACKBONE|DICT|INTERRES
    41   19   89 1    
    42   20   21 2    
    43   20   22 1    
    44   22   23 1    
    45   22   24 1    
    46   22   90 1    
    47   23   91 1    
    48   23   92 1    
    49   23   93 1    
    50   24   25 am   BACKBONE|DICT|INTERRES
    51   24   94 1    
    52   25   26 2    
    53   25   27 1    
    54   27   28 1    
    55   27   29 1    
    56   27   95 1    
    57   28   96 1    
    58   28   97 1    
    59   28   98 1    
    60   29   30 am   BACKBONE|DICT|INTERRES
    61   29   99 1    
    62   30   31 2    
    63   30   32 1    
    64   32   33 1    
    65   32   34 1    
    66   32  100 1    
    67   33  101 1    
    68   33  102 1    
    69   33  103 1    
    70   34   35 am   BACKBONE|DICT|INTERRES
    71   34  104 1    
    72   35   36 2    
    73   37   38 2    
    74   37   39 am   BACKBONE|DICT|INTERRES
    75   39   40 1    
    76   39  105 1    
    77   40   41 1    
    78   40   42 1    
    79   40  106 1    
    80   41  107 1    
    81   41  108 1    
    82   41  109 1    
    83   42   43 2    
    84   42   44 am   BACKBONE|DICT|INTERRES
    85   44   45 1    
    86   44  110 1    
    87   45   46 1    
    88   45   47 1    
    89   45  111 1    
    90   46  112 1    
    91   46  113 1    
    92   46  114 1    
    93   47   48 2    
    94   47   49 am   BACKBONE|DICT|INTERRES
    95   49   50 1    
    96   49  115 1    
    97   50   51 1    
    98   50   52 1    
    99   50  116 1    
   100   51  117 1    
   101   51  118 1    
   102   51  119 1    
   103   52   53 2    
   104   52   54 am   BACKBONE|DICT|INTERRES
   105   54   55 1    
   106   54  120 1    
   107   55   56 1    
   108   55   57 1    
   109   55  121 1    
   110   56  122 1    
   111   56  123 1    
   112   56  124 1    
   113   57   58 2    
   114   57   59 am   BACKBONE|DICT|INTERRES
   115   59   60 1    
   116   59  125 1    
   117   60   61 1    
   118   60   62 1    
   119   60  126 1    
   120   61  127 1    
   121   61  128 1    
   122   61  129 1    
   123   62   63 2    
   124   62   64 am   BACKBONE|DICT|INTERRES
   125   64   65 1    
   126   64  130 1    
   127   65   66 1    
   128   65   69 1    
   129   65  131 1    
   130   66   67 am   BACKBONE|DICT|INTERRES
   131   66   68 2    
   132   67  132 1    
   133   67  133 1    
   134   69   70 1    
   135   69  134 1    
   136   69  135 1    
   137   70   71 1    
   138   71  136 1    
   139   71  137 1    
@<TRIPOS>SUBSTRUCTURE
     1 UNK         1 GROUP             0       ****    0 ROOT    
