@<TRIPOS>MOLECULE
3R136
137   139    1
SMALL
USER_CHARGES


@<TRIPOS>ATOM
      1 CA         26.6429   21.4201    3.2333 C.3       0 UNK        -0.1979 
      2 C          26.8491   21.2393    1.7372 C.2       0 UNK         0.4864 
      3 O          25.8762   21.2613    0.9815 O.2       0 UNK        -0.5359 
      4 N          28.1082   21.0728    1.3091 N.am      1 UNK        -0.4318 
      5 CA         28.5696   20.9475   -0.0806 C.3       1 UNK         0.0824 
      6 C6         30.1138   20.7491   -0.1868 C.3       12 UNK        -0.0944 
      7 S7         31.0988   21.5210    1.1505 S.3       12 UNK        -0.2672 
      8 C8         31.7381   23.0463    0.3729 C.3       12 UNK         0.0333 
      9 C9         31.9305   24.2337    1.3240 C.ar      12 UNK        -0.0807 
     10 C10        32.2358   25.4817    0.7699 C.ar      12 UNK        -0.0894 
     11 C11        32.3717   26.6129    1.5792 C.ar      12 UNK        -0.0804 
     12 C12        32.2399   26.4872    2.9634 C.ar      12 UNK        -0.0824 
     13 C13        31.9410   25.2512    3.5402 C.ar      12 UNK        -0.0762 
     14 C14        31.7934   24.1308    2.7170 C.ar      12 UNK        -0.0782 
     15 C15        31.7631   25.1168    5.0498 C.3       12 UNK         0.0230 
     16 S16        30.4717   26.2116    5.7360 S.3       12 UNK        -0.2608 
     17 C17        29.0488   25.9187    4.6249 C.3       12 UNK        -0.0989 
     18 CA         28.8394   27.1175    3.6584 C.3       5 UNK         0.0716 
     19 N          28.5458   26.6908    2.2856 N.am      5 UNK        -0.4135 
     20 C          28.6533   27.4761    1.2034 C.2       4 UNK         0.5031 
     21 O          29.0451   28.6426    1.2461 O.2       4 UNK        -0.5229 
     22 CA         28.1702   26.9016   -0.1379 C.3       4 UNK         0.0329 
     23 CB         29.3515   26.4345   -0.9988 C.3       4 UNK        -0.2001 
     24 N          27.1973   25.8113   -0.0126 N.am      4 UNK        -0.4303 
     25 C          25.9513   25.9485    0.4700 C.2       3 UNK         0.5044 
     26 O          25.5537   26.9871    1.0004 O.2       3 UNK        -0.5152 
     27 CA         24.9964   24.7356    0.3698 C.3       3 UNK         0.0319 
     28 CB         23.5333   25.1619    0.1291 C.3       3 UNK        -0.2001 
     29 N          25.4139   23.7217   -0.6085 N.am      3 UNK        -0.4354 
     30 C          25.6160   23.8874   -1.9276 C.2       2 UNK         0.4964 
     31 O          25.3062   24.9099   -2.5408 O.2       2 UNK        -0.5047 
     32 CA         26.3261   22.7401   -2.6843 C.3       2 UNK         0.0288 
     33 CB         27.2434   23.2709   -3.8073 C.3       2 UNK        -0.2113 
     34 N          27.0743   21.8117   -1.8208 N.am      2 UNK        -0.4145 
     35 C          28.0576   22.1115   -0.9549 C.2       1 UNK         0.5006 
     36 O          28.4946   23.2497   -0.7778 O.2       1 UNK        -0.5103 
     37 C          27.8484   28.1709    4.2114 C.2       5 UNK         0.5055 
     38 O          28.1020   28.7270    5.2800 O.2       5 UNK        -0.5220 
     39 N          26.7806   28.5018    3.4646 N.am      6 UNK        -0.4450 
     40 CA         25.9524   29.6928    3.6884 C.3       6 UNK         0.0367 
     41 CB         24.7563   29.6718    2.7245 C.3       6 UNK        -0.1929 
     42 C          26.7377   31.0148    3.5433 C.2       6 UNK         0.5070 
     43 O          26.3448   32.0141    4.1444 O.2       6 UNK        -0.5237 
     44 N          27.8516   30.9917    2.7942 N.am      7 UNK        -0.4739 
     45 CA         28.8254   32.0833    2.6877 C.3       7 UNK         0.0276 
     46 CB         29.4386   32.0540    1.2766 C.3       7 UNK        -0.1927 
     47 C          29.9201   32.0186    3.7772 C.2       7 UNK         0.5013 
     48 O          30.9191   32.7322    3.6593 O.2       7 UNK        -0.5193 
     49 N          29.7213   31.1696    4.7997 N.am      8 UNK        -0.4253 
     50 CA         30.6263   30.8201    5.9015 C.3       8 UNK         0.0242 
     51 CB         31.0743   32.0731    6.6858 C.3       8 UNK        -0.2000 
     52 C          31.8230   29.9744    5.4348 C.2       8 UNK         0.4948 
     53 O          32.0435   29.8035    4.2353 O.2       8 UNK        -0.5275 
     54 N          32.6081   29.4782    6.4017 N.am      9 UNK        -0.4246 
     55 CA         33.8276   28.6898    6.1726 C.3       9 UNK         0.0261 
     56 CB         34.3438   28.1546    7.5178 C.3       9 UNK        -0.1959 
     57 C          34.9415   29.4524    5.4262 C.2       9 UNK         0.5033 
     58 O          35.8163   28.8183    4.8361 O.2       9 UNK        -0.5390 
     59 N          34.8810   30.7912    5.4525 N.am      10 UNK        -0.4215 
     60 CA         35.7187   31.6908    4.6585 C.3       10 UNK         0.0240 
     61 CB         35.6573   33.0982    5.2759 C.3       10 UNK        -0.1982 
     62 C          35.3222   31.7424    3.1688 C.2       10 UNK         0.4970 
     63 O          36.1323   32.2032    2.3633 O.2       10 UNK        -0.4916 
     64 N          34.1059   31.2878    2.8309 N.am      11 UNK        -0.4279 
     65 CA         33.5235   31.2651    1.4812 C.3       11 UNK         0.1003 
     66 C          33.3703   32.6850    0.8646 C.2       11 UNK         0.5709 
     67 N          32.7597   33.6166    1.5857 N.am      11 UNK        -0.7358 
     68 O          33.7970   32.9521   -0.2570 O.2       11 UNK        -0.4999 
     69 C69        34.2088   30.2392    0.5305 C.3       12 UNK        -0.0954 
     70 S70        34.3087   28.5558    1.2289 S.3       12 UNK        -0.2268 
     71 C71        32.6056   27.9827    0.9633 C.3       12 UNK         0.0203 
     72 H72        27.5850   21.3965    3.7810 H         1 UNK         0.0888 
     73 H73        26.1589   22.3759    3.4321 H         1 UNK         0.0888 
     74 H74        26.0045   20.6271    3.6217 H         1 UNK         0.0888 
     75 H75        28.8616   21.0978    1.9825 H         1 UNK         0.3017 
     76 H76        28.1103   20.0348   -0.4660 H         1 UNK         0.0873 
     77 H77        30.4995   21.0615   -1.1597 H         1 UNK         0.0745 
     78 H78        30.3266   19.6802   -0.1348 H         1 UNK         0.0745 
     79 H79        31.0595   23.3501   -0.4238 H         1 UNK         0.0705 
     80 H80        32.6906   22.8164   -0.1061 H         1 UNK         0.0705 
     81 H81        32.3378   25.5789   -0.3025 H         1 UNK         0.1334 
     82 H82        32.3404   27.3622    3.5888 H         1 UNK         0.1417 
     83 H83        31.5618   23.1817    3.1770 H         1 UNK         0.1562 
     84 H84        32.7112   25.3430    5.5394 H         1 UNK         0.0748 
     85 H85        31.5185   24.0884    5.3201 H         1 UNK         0.0748 
     86 H86        28.1600   25.7250    5.2288 H         1 UNK         0.0940 
     87 H87        29.2257   24.9942    4.0736 H         1 UNK         0.0940 
     88 H88        29.7858   27.6577    3.5827 H         1 UNK         0.0703 
     89 H89        28.2057   25.7495    2.1589 H         1 UNK         0.3081 
     90 H90        27.6760   27.7187   -0.6678 H         1 UNK         0.0719 
     91 H91        29.0265   26.1701   -2.0052 H         1 UNK         0.0809 
     92 H92        30.1054   27.2169   -1.0940 H         1 UNK         0.0809 
     93 H93        29.8337   25.5592   -0.5668 H         1 UNK         0.0809 
     94 H94        27.4839   24.9102   -0.3858 H         1 UNK         0.2990 
     95 H95        25.0393   24.2437    1.3425 H         1 UNK         0.0690 
     96 H96        23.4225   25.7249   -0.7980 H         1 UNK         0.0788 
     97 H97        23.1716   25.7974    0.9385 H         1 UNK         0.0788 
     98 H98        22.8715   24.2973    0.0786 H         1 UNK         0.0788 
     99 H99        25.6673   22.8233   -0.2040 H         1 UNK         0.2993 
    100 H100       25.5319   22.1549   -3.1504 H         1 UNK         0.0949 
    101 H101       28.0252   23.9225   -3.4150 H         1 UNK         0.0767 
    102 H102       27.7260   22.4544   -4.3446 H         1 UNK         0.0767 
    103 H103       26.6773   23.8468   -4.5405 H         1 UNK         0.0767 
    104 H104       26.7466   20.8554   -1.8419 H         1 UNK         0.3013 
    105 H105       26.5977   27.9866    2.6103 H         1 UNK         0.3121 
    106 H106       25.5713   29.6476    4.7107 H         1 UNK         0.0774 
    107 H107       24.1025   30.5285    2.8937 H         1 UNK         0.0815 
    108 H108       25.0779   29.7066    1.6827 H         1 UNK         0.0815 
    109 H109       24.1538   28.7731    2.8581 H         1 UNK         0.0815 
    110 H110       28.1121   30.1276    2.3273 H         1 UNK         0.2987 
    111 H111       28.3102   33.0383    2.8109 H         1 UNK         0.0949 
    112 H112       30.0541   31.1668    1.1240 H         1 UNK         0.0806 
    113 H113       28.6670   32.0625    0.5069 H         1 UNK         0.0806 
    114 H114       30.0701   32.9258    1.1053 H         1 UNK         0.0806 
    115 H115       28.8885   30.5939    4.7635 H         1 UNK         0.3010 
    116 H116       30.0410   30.1911    6.5740 H         1 UNK         0.0829 
    117 H117       31.5686   31.8022    7.6190 H         1 UNK         0.0813 
    118 H118       31.7744   32.6852    6.1165 H         1 UNK         0.0813 
    119 H119       30.2220   32.6999    6.9483 H         1 UNK         0.0813 
    120 H120       32.3573   29.6466    7.3656 H         1 UNK         0.3038 
    121 H121       33.5550   27.8351    5.5512 H         1 UNK         0.0769 
    122 H122       34.6098   28.9630    8.1999 H         1 UNK         0.0811 
    123 H123       35.2345   27.5405    7.3771 H         1 UNK         0.0811 
    124 H124       33.5975   27.5293    8.0085 H         1 UNK         0.0811 
    125 H125       34.1376   31.2176    5.9852 H         1 UNK         0.3204 
    126 H126       36.7506   31.3369    4.7106 H         1 UNK         0.0748 
    127 H127       36.3010   33.7913    4.7323 H         1 UNK         0.0771 
    128 H128       34.6458   33.5065    5.2509 H         1 UNK         0.0771 
    129 H129       35.9938   33.0929    6.3129 H         1 UNK         0.0771 
    130 H130       33.5009   30.8962    3.5455 H         1 UNK         0.2980 
    131 H131       32.4986   30.9234    1.6232 H         1 UNK         0.0545 
    132 H132       32.6567   34.5450    1.2098 H         1 UNK         0.3459 
    133 H133       32.3165   33.3727    2.4672 H         1 UNK         0.3459 
    134 H134       33.6772   30.1864   -0.4212 H         1 UNK         0.0616 
    135 H135       35.2234   30.5628    0.2931 H         1 UNK         0.0616 
    136 H136       32.3921   27.9690   -0.1064 H         1 UNK         0.0634 
    137 H137       31.9062   28.6905    1.4105 H         1 UNK         0.0634 
@<TRIPOS>BOND
     1    1    2 1    
     2    1   72 1    
     3    1   73 1    
     4    1   74 1    
     5    2    3 2    
     6    2    4 am   BACKBONE|DICT|INTERRES
     7    4    5 1    
     8    4   75 1    
     9    5    6 1    
    10    5   35 1    
    11    5   76 1    
    12    6    7 1    
    13    6   77 1    
    14    6   78 1    
    15    7    8 1    
    16    8    9 1    
    17    8   79 1    
    18    8   80 1    
    19    9   10 ar   
    20    9   14 ar   
    21   10   11 ar   
    22   10   81 1    
    23   11   12 ar   
    24   11   71 1    
    25   12   13 ar   
    26   12   82 1    
    27   13   14 ar   
    28   13   15 1    
    29   14   83 1    
    30   15   16 1    
    31   15   84 1    
    32   15   85 1    
    33   16   17 1    
    34   17   18 1    
    35   17   86 1    
    36   17   87 1    
    37   18   19 1    
    38   18   37 1    
    39   18   88 1    
    40   19   20 am   BACKBONE|DICT|INTERRES
    41   19   89 1    
    42   20   21 2    
    43   20   22 1    
    44   22   23 1    
    45   22   24 1    
    46   22   90 1    
    47   23   91 1    
    48   23   92 1    
    49   23   93 1    
    50   24   25 am   BACKBONE|DICT|INTERRES
    51   24   94 1    
    52   25   26 2    
    53   25   27 1    
    54   27   28 1    
    55   27   29 1    
    56   27   95 1    
    57   28   96 1    
    58   28   97 1    
    59   28   98 1    
    60   29   30 am   BACKBONE|DICT|INTERRES
    61   29   99 1    
    62   30   31 2    
    63   30   32 1    
    64   32   33 1    
    65   32   34 1    
    66   32  100 1    
    67   33  101 1    
    68   33  102 1    
    69   33  103 1    
    70   34   35 am   BACKBONE|DICT|INTERRES
    71   34  104 1    
    72   35   36 2    
    73   37   38 2    
    74   37   39 am   BACKBONE|DICT|INTERRES
    75   39   40 1    
    76   39  105 1    
    77   40   41 1    
    78   40   42 1    
    79   40  106 1    
    80   41  107 1    
    81   41  108 1    
    82   41  109 1    
    83   42   43 2    
    84   42   44 am   BACKBONE|DICT|INTERRES
    85   44   45 1    
    86   44  110 1    
    87   45   46 1    
    88   45   47 1    
    89   45  111 1    
    90   46  112 1    
    91   46  113 1    
    92   46  114 1    
    93   47   48 2    
    94   47   49 am   BACKBONE|DICT|INTERRES
    95   49   50 1    
    96   49  115 1    
    97   50   51 1    
    98   50   52 1    
    99   50  116 1    
   100   51  117 1    
   101   51  118 1    
   102   51  119 1    
   103   52   53 2    
   104   52   54 am   BACKBONE|DICT|INTERRES
   105   54   55 1    
   106   54  120 1    
   107   55   56 1    
   108   55   57 1    
   109   55  121 1    
   110   56  122 1    
   111   56  123 1    
   112   56  124 1    
   113   57   58 2    
   114   57   59 am   BACKBONE|DICT|INTERRES
   115   59   60 1    
   116   59  125 1    
   117   60   61 1    
   118   60   62 1    
   119   60  126 1    
   120   61  127 1    
   121   61  128 1    
   122   61  129 1    
   123   62   63 2    
   124   62   64 am   BACKBONE|DICT|INTERRES
   125   64   65 1    
   126   64  130 1    
   127   65   66 1    
   128   65   69 1    
   129   65  131 1    
   130   66   67 am   BACKBONE|DICT|INTERRES
   131   66   68 2    
   132   67  132 1    
   133   67  133 1    
   134   69   70 1    
   135   69  134 1    
   136   69  135 1    
   137   70   71 1    
   138   71  136 1    
   139   71  137 1    
@<TRIPOS>SUBSTRUCTURE
     1 UNK         1 GROUP             0       ****    0 ROOT    
