@<TRIPOS>MOLECULE
3R136
137   139    1
SMALL
USER_CHARGES


@<TRIPOS>ATOM
      1 CA         25.6045   19.8447   -2.0286 C.3       0 UNK        -0.1979 
      2 C          26.6931   20.8341   -1.6397 C.2       0 UNK         0.4864 
      3 O          26.9690   21.7654   -2.3964 O.2       0 UNK        -0.5359 
      4 N          27.3192   20.6317   -0.4715 N.am      1 UNK        -0.4318 
      5 CA         28.3484   21.5170    0.0867 C.3       1 UNK         0.0824 
      6 C6         29.1576   20.8055    1.2054 C.3       12 UNK        -0.0944 
      7 S7         30.8469   21.4665    1.3866 S.3       12 UNK        -0.2672 
      8 C8         30.6325   22.6115    2.7929 C.3       12 UNK         0.0333 
      9 C9         31.5375   23.8397    2.7257 C.ar      12 UNK        -0.0807 
     10 C10        32.0749   24.3726    3.9024 C.ar      12 UNK        -0.0894 
     11 C11        32.8645   25.5266    3.8645 C.ar      12 UNK        -0.0804 
     12 C12        33.1173   26.1507    2.6389 C.ar      12 UNK        -0.0824 
     13 C13        32.5808   25.6354    1.4568 C.ar      12 UNK        -0.0762 
     14 C14        31.7969   24.4797    1.5078 C.ar      12 UNK        -0.0782 
     15 C15        32.8582   26.3228    0.1274 C.3       12 UNK         0.0230 
     16 S16        31.6682   27.6587   -0.2142 S.3       12 UNK        -0.2608 
     17 C17        30.2010   26.7197   -0.7650 C.3       12 UNK        -0.0989 
     18 CA         28.8541   27.3803   -0.3614 C.3       5 UNK         0.0716 
     19 N          27.7360   26.8812   -1.1503 N.am      5 UNK        -0.4135 
     20 C          27.4521   27.1675   -2.4246 C.2       4 UNK         0.5031 
     21 O          28.1540   27.8800   -3.1433 O.2       4 UNK        -0.5229 
     22 CA         26.1568   26.5583   -2.9965 C.3       4 UNK         0.0329 
     23 CB         26.4713   25.2816   -3.7921 C.3       4 UNK        -0.2001 
     24 N          25.1791   26.2410   -1.9524 N.am      4 UNK        -0.4303 
     25 C          24.4781   27.1449   -1.2565 C.2       3 UNK         0.5044 
     26 O          24.4586   28.3466   -1.5242 O.2       3 UNK        -0.5152 
     27 CA         23.7131   26.6372   -0.0218 C.3       3 UNK         0.0319 
     28 CB         22.3702   25.9876   -0.4110 C.3       3 UNK        -0.2001 
     29 N          24.5192   25.7714    0.8552 N.am      3 UNK        -0.4354 
     30 C          24.9641   24.5271    0.6299 C.2       2 UNK         0.4964 
     31 O          24.7247   23.8848   -0.3953 O.2       2 UNK        -0.5047 
     32 CA         25.8206   23.9081    1.7455 C.3       2 UNK         0.0288 
     33 CB         24.9400   23.4493    2.9197 C.3       2 UNK        -0.2113 
     34 N          26.5926   22.7643    1.2606 N.am      2 UNK        -0.4145 
     35 C          27.7397   22.8514    0.5719 C.2       1 UNK         0.5006 
     36 O          28.3043   23.9154    0.3144 O.2       1 UNK        -0.5103 
     37 C          28.4550   27.2377    1.1245 C.2       5 UNK         0.5055 
     38 O          27.2630   27.3157    1.4367 O.2       5 UNK        -0.5220 
     39 N          29.4432   27.0493    2.0091 N.am      6 UNK        -0.4450 
     40 CA         29.3405   26.9939    3.4741 C.3       6 UNK         0.0367 
     41 CB         28.4023   25.8639    3.9463 C.3       6 UNK        -0.1929 
     42 C          29.0021   28.3541    4.1149 C.2       6 UNK         0.5070 
     43 O          28.4537   28.3941    5.2179 O.2       6 UNK        -0.5237 
     44 N          29.3444   29.4487    3.4236 N.am      7 UNK        -0.4739 
     45 CA         29.2427   30.8146    3.9324 C.3       7 UNK         0.0276 
     46 CB         29.1831   31.7848    2.7413 C.3       7 UNK        -0.1927 
     47 C          30.4562   31.1367    4.8140 C.2       7 UNK         0.5013 
     48 O          31.5672   30.7095    4.4917 O.2       7 UNK        -0.5193 
     49 N          30.2517   31.9467    5.8616 N.am      8 UNK        -0.4253 
     50 CA         31.3006   32.3843    6.7945 C.3       8 UNK         0.0242 
     51 CB         30.6768   33.2509    7.8998 C.3       8 UNK        -0.2000 
     52 C          32.4703   33.1275    6.1220 C.2       8 UNK         0.4948 
     53 O          33.6059   33.0053    6.5798 O.2       8 UNK        -0.5275 
     54 N          32.1834   33.8355    5.0203 N.am      9 UNK        -0.4246 
     55 CA         33.1746   34.4848    4.1596 C.3       9 UNK         0.0261 
     56 CB         32.4491   35.3940    3.1541 C.3       9 UNK        -0.1959 
     57 C          34.0989   33.4969    3.4202 C.2       9 UNK         0.5033 
     58 O          35.2193   33.8784    3.0785 O.2       9 UNK        -0.5390 
     59 N          33.6286   32.2633    3.1839 N.am      10 UNK        -0.4215 
     60 CA         34.4127   31.1808    2.5913 C.3       10 UNK         0.0240 
     61 CB         33.5045   30.2826    1.7321 C.3       10 UNK        -0.1982 
     62 C          35.1163   30.3605    3.6808 C.2       10 UNK         0.4970 
     63 O          36.3012   30.0595    3.5313 O.2       10 UNK        -0.4916 
     64 N          34.3801   30.0047    4.7431 N.am      11 UNK        -0.4279 
     65 CA         34.8820   29.1697    5.8461 C.3       11 UNK         0.1003 
     66 C          35.8831   29.8819    6.7972 C.2       11 UNK         0.5709 
     67 N          35.8330   31.1986    6.9533 N.am      11 UNK        -0.7358 
     68 O          36.7296   29.2243    7.3981 O.2       11 UNK        -0.4999 
     69 C69        33.7415   28.4910    6.6522 C.3       12 UNK        -0.0954 
     70 S70        32.5252   27.6244    5.6071 S.3       12 UNK        -0.2268 
     71 C71        33.4350   26.1200    5.1424 C.3       12 UNK         0.0203 
     72 H72        25.4809   19.0587   -1.2839 H         1 UNK         0.0888 
     73 H73        24.6517   20.3624   -2.1369 H         1 UNK         0.0888 
     74 H74        25.8475   19.3743   -2.9811 H         1 UNK         0.0888 
     75 H75        27.0645   19.8337    0.0933 H         1 UNK         0.3017 
     76 H76        29.0341   21.7563   -0.7298 H         1 UNK         0.0873 
     77 H77        29.2786   19.7499    0.9564 H         1 UNK         0.0745 
     78 H78        28.6342   20.8186    2.1638 H         1 UNK         0.0745 
     79 H79        30.8061   22.0561    3.7158 H         1 UNK         0.0705 
     80 H80        29.6007   22.9571    2.8312 H         1 UNK         0.0705 
     81 H81        31.8671   23.8979    4.8518 H         1 UNK         0.1334 
     82 H82        33.7207   27.0482    2.6103 H         1 UNK         0.1417 
     83 H83        31.3795   24.0772    0.5959 H         1 UNK         0.1562 
     84 H84        32.8461   25.6006   -0.6907 H         1 UNK         0.0748 
     85 H85        33.8634   26.7471    0.1392 H         1 UNK         0.0748 
     86 H86        30.2326   25.6877   -0.4206 H         1 UNK         0.0940 
     87 H87        30.2738   26.6579   -1.8517 H         1 UNK         0.0940 
     88 H88        28.9247   28.4532   -0.5521 H         1 UNK         0.0703 
     89 H89        27.0803   26.3253   -0.6186 H         1 UNK         0.3081 
     90 H90        25.7146   27.2904   -3.6756 H         1 UNK         0.0719 
     91 H91        26.9069   24.5082   -3.1573 H         1 UNK         0.0809 
     92 H92        25.5736   24.8693   -4.2531 H         1 UNK         0.0809 
     93 H93        27.1827   25.4855   -4.5935 H         1 UNK         0.0809 
     94 H94        25.1099   25.2706   -1.6549 H         1 UNK         0.2990 
     95 H95        23.4805   27.5170    0.5805 H         1 UNK         0.0690 
     96 H96        22.5026   25.1174   -1.0544 H         1 UNK         0.0788 
     97 H97        21.7424   26.6951   -0.9540 H         1 UNK         0.0788 
     98 H98        21.8134   25.6709    0.4709 H         1 UNK         0.0788 
     99 H99        24.8287   26.2222    1.7067 H         1 UNK         0.2993 
    100 H100       26.5149   24.6709    2.1006 H         1 UNK         0.0949 
    101 H101       24.2169   22.6931    2.6107 H         1 UNK         0.0767 
    102 H102       25.5427   23.0287    3.7251 H         1 UNK         0.0767 
    103 H103       24.3784   24.2836    3.3420 H         1 UNK         0.0767 
    104 H104       26.1676   21.8561    1.3716 H         1 UNK         0.3013 
    105 H105       30.3850   26.9878    1.6397 H         1 UNK         0.3121 
    106 H106       30.3407   26.7454    3.8238 H         1 UNK         0.0774 
    107 H107       28.5449   25.6624    5.0084 H         1 UNK         0.0815 
    108 H108       27.3535   26.1256    3.8070 H         1 UNK         0.0815 
    109 H109       28.5953   24.9369    3.4103 H         1 UNK         0.0815 
    110 H110       29.8381   29.3269    2.5524 H         1 UNK         0.2987 
    111 H111       28.3277   30.9156    4.5206 H         1 UNK         0.0949 
    112 H112       30.0859   31.7338    2.1305 H         1 UNK         0.0806 
    113 H113       28.3310   31.5677    2.0967 H         1 UNK         0.0806 
    114 H114       29.0759   32.8162    3.0798 H         1 UNK         0.0806 
    115 H115       29.3140   32.2710    6.0519 H         1 UNK         0.3010 
    116 H116       31.7164   31.4868    7.2575 H         1 UNK         0.0829 
    117 H117       31.4334   33.5703    8.6182 H         1 UNK         0.0813 
    118 H118       30.2115   34.1506    7.4952 H         1 UNK         0.0813 
    119 H119       29.9182   32.7002    8.4565 H         1 UNK         0.0813 
    120 H120       31.2192   33.8892    4.7267 H         1 UNK         0.3038 
    121 H121       33.8073   35.1104    4.7931 H         1 UNK         0.0769 
    122 H122       33.1629   35.9160    2.5152 H         1 UNK         0.0811 
    123 H123       31.8559   36.1550    3.6616 H         1 UNK         0.0811 
    124 H124       31.7837   34.8263    2.5022 H         1 UNK         0.0811 
    125 H125       32.7232   31.9996    3.5588 H         1 UNK         0.3204 
    126 H126       35.1791   31.6001    1.9357 H         1 UNK         0.0748 
    127 H127       34.0852   29.5009    1.2406 H         1 UNK         0.0771 
    128 H128       32.7339   29.7863    2.3228 H         1 UNK         0.0771 
    129 H129       33.0068   30.8547    0.9491 H         1 UNK         0.0771 
    130 H130       33.3938   30.2477    4.7717 H         1 UNK         0.2980 
    131 H131       35.4575   28.3674    5.3822 H         1 UNK         0.0545 
    132 H132       36.4961   31.6419    7.5681 H         1 UNK         0.3459 
    133 H133       35.0846   31.7509    6.5464 H         1 UNK         0.3459 
    134 H134       34.1481   27.7784    7.3723 H         1 UNK         0.0616 
    135 H135       33.1982   29.2385    7.2330 H         1 UNK         0.0616 
    136 H136       34.4896   26.3451    4.9854 H         1 UNK         0.0634 
    137 H137       33.3892   25.4041    5.9644 H         1 UNK         0.0634 
@<TRIPOS>BOND
     1    1    2 1    
     2    1   72 1    
     3    1   73 1    
     4    1   74 1    
     5    2    3 2    
     6    2    4 am   BACKBONE|DICT|INTERRES
     7    4    5 1    
     8    4   75 1    
     9    5    6 1    
    10    5   35 1    
    11    5   76 1    
    12    6    7 1    
    13    6   77 1    
    14    6   78 1    
    15    7    8 1    
    16    8    9 1    
    17    8   79 1    
    18    8   80 1    
    19    9   10 ar   
    20    9   14 ar   
    21   10   11 ar   
    22   10   81 1    
    23   11   12 ar   
    24   11   71 1    
    25   12   13 ar   
    26   12   82 1    
    27   13   14 ar   
    28   13   15 1    
    29   14   83 1    
    30   15   16 1    
    31   15   84 1    
    32   15   85 1    
    33   16   17 1    
    34   17   18 1    
    35   17   86 1    
    36   17   87 1    
    37   18   19 1    
    38   18   37 1    
    39   18   88 1    
    40   19   20 am   BACKBONE|DICT|INTERRES
    41   19   89 1    
    42   20   21 2    
    43   20   22 1    
    44   22   23 1    
    45   22   24 1    
    46   22   90 1    
    47   23   91 1    
    48   23   92 1    
    49   23   93 1    
    50   24   25 am   BACKBONE|DICT|INTERRES
    51   24   94 1    
    52   25   26 2    
    53   25   27 1    
    54   27   28 1    
    55   27   29 1    
    56   27   95 1    
    57   28   96 1    
    58   28   97 1    
    59   28   98 1    
    60   29   30 am   BACKBONE|DICT|INTERRES
    61   29   99 1    
    62   30   31 2    
    63   30   32 1    
    64   32   33 1    
    65   32   34 1    
    66   32  100 1    
    67   33  101 1    
    68   33  102 1    
    69   33  103 1    
    70   34   35 am   BACKBONE|DICT|INTERRES
    71   34  104 1    
    72   35   36 2    
    73   37   38 2    
    74   37   39 am   BACKBONE|DICT|INTERRES
    75   39   40 1    
    76   39  105 1    
    77   40   41 1    
    78   40   42 1    
    79   40  106 1    
    80   41  107 1    
    81   41  108 1    
    82   41  109 1    
    83   42   43 2    
    84   42   44 am   BACKBONE|DICT|INTERRES
    85   44   45 1    
    86   44  110 1    
    87   45   46 1    
    88   45   47 1    
    89   45  111 1    
    90   46  112 1    
    91   46  113 1    
    92   46  114 1    
    93   47   48 2    
    94   47   49 am   BACKBONE|DICT|INTERRES
    95   49   50 1    
    96   49  115 1    
    97   50   51 1    
    98   50   52 1    
    99   50  116 1    
   100   51  117 1    
   101   51  118 1    
   102   51  119 1    
   103   52   53 2    
   104   52   54 am   BACKBONE|DICT|INTERRES
   105   54   55 1    
   106   54  120 1    
   107   55   56 1    
   108   55   57 1    
   109   55  121 1    
   110   56  122 1    
   111   56  123 1    
   112   56  124 1    
   113   57   58 2    
   114   57   59 am   BACKBONE|DICT|INTERRES
   115   59   60 1    
   116   59  125 1    
   117   60   61 1    
   118   60   62 1    
   119   60  126 1    
   120   61  127 1    
   121   61  128 1    
   122   61  129 1    
   123   62   63 2    
   124   62   64 am   BACKBONE|DICT|INTERRES
   125   64   65 1    
   126   64  130 1    
   127   65   66 1    
   128   65   69 1    
   129   65  131 1    
   130   66   67 am   BACKBONE|DICT|INTERRES
   131   66   68 2    
   132   67  132 1    
   133   67  133 1    
   134   69   70 1    
   135   69  134 1    
   136   69  135 1    
   137   70   71 1    
   138   71  136 1    
   139   71  137 1    
@<TRIPOS>SUBSTRUCTURE
     1 UNK         1 GROUP             0       ****    0 ROOT    
