@<TRIPOS>MOLECULE
3R136
137   139    1
SMALL
USER_CHARGES


@<TRIPOS>ATOM
      1 CA         31.4732   23.7638    4.9751 C.3       0 UNK        -0.1979 
      2 C          30.7329   22.6874    4.1971 C.2       0 UNK         0.4864 
      3 O          29.9707   21.9228    4.7898 O.2       0 UNK        -0.5359 
      4 N          30.9620   22.6108    2.8785 N.am      1 UNK        -0.4318 
      5 CA         30.4055   21.5779    1.9910 C.3       1 UNK         0.0824 
      6 C6         31.1537   21.4978    0.6375 C.3       12 UNK        -0.0944 
      7 S7         32.9585   21.3131    0.8675 S.3       12 UNK        -0.2672 
      8 C8         33.6535   22.3838   -0.4336 C.3       12 UNK         0.0333 
      9 C9         33.1661   23.8256   -0.3546 C.ar      12 UNK        -0.0807 
     10 C10        33.5096   24.6409    0.7316 C.ar      12 UNK        -0.0894 
     11 C11        33.0732   25.9697    0.7898 C.ar      12 UNK        -0.0804 
     12 C12        32.3155   26.4781   -0.2689 C.ar      12 UNK        -0.0824 
     13 C13        31.9390   25.6712   -1.3402 C.ar      12 UNK        -0.0762 
     14 C14        32.3746   24.3458   -1.3845 C.ar      12 UNK        -0.0782 
     15 C15        31.0436   26.2360   -2.4319 C.3       12 UNK         0.0230 
     16 S16        29.3030   25.7701   -2.1717 S.3       12 UNK        -0.2608 
     17 C17        28.8773   26.6345   -0.6198 C.3       12 UNK        -0.0989 
     18 CA         27.8911   27.8077   -0.8421 C.3       5 UNK         0.0716 
     19 N          26.8668   27.8455    0.2065 N.am      5 UNK        -0.4135 
     20 C          25.6555   28.4002    0.0682 C.2       4 UNK         0.5031 
     21 O          25.2317   28.8547   -0.9959 O.2       4 UNK        -0.5229 
     22 CA         24.7719   28.4517    1.3260 C.3       4 UNK         0.0329 
     23 CB         23.2702   28.5687    0.9998 C.3       4 UNK        -0.2001 
     24 N          24.9939   27.2785    2.1735 N.am      4 UNK        -0.4303 
     25 C          25.1797   27.3081    3.4990 C.2       3 UNK         0.5044 
     26 O          25.1727   28.3422    4.1679 O.2       3 UNK        -0.5152 
     27 CA         25.3834   25.9612    4.2196 C.3       3 UNK         0.0319 
     28 CB         24.1542   25.6236    5.0806 C.3       3 UNK        -0.2001 
     29 N          25.6624   24.8259    3.3317 N.am      3 UNK        -0.4354 
     30 C          26.8340   24.6092    2.7223 C.2       2 UNK         0.4964 
     31 O          27.7892   25.3872    2.7683 O.2       2 UNK        -0.5047 
     32 CA         26.9609   23.3078    1.9240 C.3       2 UNK         0.0288 
     33 CB         26.3931   23.4496    0.4997 C.3       2 UNK        -0.2113 
     34 N          28.3760   22.9608    1.8832 N.am      2 UNK        -0.4145 
     35 C          28.8841   21.7283    1.7731 C.2       1 UNK         0.5006 
     36 O          28.2044   20.7273    1.5381 O.2       1 UNK        -0.5103 
     37 C          28.6097   29.1732   -0.9522 C.2       5 UNK         0.5055 
     38 O          28.9161   29.6155   -2.0598 O.2       5 UNK        -0.5220 
     39 N          28.8036   29.8309    0.2024 N.am      6 UNK        -0.4450 
     40 CA         29.1833   31.2339    0.4003 C.3       6 UNK         0.0367 
     41 CB         28.0647   32.1649   -0.1148 C.3       6 UNK        -0.1929 
     42 C          30.5761   31.6325   -0.1257 C.2       6 UNK         0.5070 
     43 O          30.7809   32.7992   -0.4658 O.2       6 UNK        -0.5237 
     44 N          31.5286   30.6896   -0.1478 N.am      7 UNK        -0.4739 
     45 CA         32.9368   30.9790   -0.4594 C.3       7 UNK         0.0276 
     46 CB         33.6371   29.7057   -0.9581 C.3       7 UNK        -0.1927 
     47 C          33.6967   31.5701    0.7441 C.2       7 UNK         0.5013 
     48 O          34.7084   32.2449    0.5501 O.2       7 UNK        -0.5193 
     49 N          33.1993   31.3045    1.9560 N.am      8 UNK        -0.4253 
     50 CA         33.7181   31.7467    3.2437 C.3       8 UNK         0.0242 
     51 CB         34.8941   30.8465    3.6688 C.3       8 UNK        -0.2000 
     52 C          32.5698   31.6670    4.2570 C.2       8 UNK         0.4948 
     53 O          31.5550   31.0223    3.9793 O.2       8 UNK        -0.5275 
     54 N          32.7554   32.2856    5.4310 N.am      9 UNK        -0.4246 
     55 CA         31.7679   32.3297    6.5196 C.3       9 UNK         0.0261 
     56 CB         32.2975   33.2251    7.6515 C.3       9 UNK        -0.1959 
     57 C          31.3616   30.9491    7.0722 C.2       9 UNK         0.5033 
     58 O          30.2326   30.7954    7.5392 O.2       9 UNK        -0.5390 
     59 N          32.2699   29.9675    6.9826 N.am      10 UNK        -0.4215 
     60 CA         32.0480   28.5707    7.3683 C.3       10 UNK         0.0240 
     61 CB         33.4052   27.8485    7.4128 C.3       10 UNK        -0.1982 
     62 C          31.0717   27.8070    6.4509 C.2       10 UNK         0.4970 
     63 O          30.5726   26.7594    6.8625 O.2       10 UNK        -0.4916 
     64 N          30.8307   28.3215    5.2404 N.am      11 UNK        -0.4279 
     65 CA         29.9859   27.7214    4.1986 C.3       11 UNK         0.1003 
     66 C          28.9124   28.7053    3.6542 C.2       11 UNK         0.5709 
     67 N          28.5957   29.7905    4.3498 N.am      11 UNK        -0.7358 
     68 O          28.3421   28.4838    2.5894 O.2       11 UNK        -0.4999 
     69 C69        30.8380   27.0359    3.0922 C.3       12 UNK        -0.0954 
     70 S70        32.1627   28.0881    2.4098 S.3       12 UNK        -0.2268 
     71 C71        33.4405   26.8506    1.9836 C.3       12 UNK         0.0203 
     72 H72        30.7836   24.5557    5.2648 H         1 UNK         0.0888 
     73 H73        31.9042   23.3424    5.8829 H         1 UNK         0.0888 
     74 H74        32.2847   24.2007    4.3938 H         1 UNK         0.0888 
     75 H75        31.6146   23.2467    2.4427 H         1 UNK         0.3017 
     76 H76        30.5471   20.6190    2.4951 H         1 UNK         0.0873 
     77 H77        30.9369   22.3803    0.0350 H         1 UNK         0.0745 
     78 H78        30.8006   20.6429    0.0576 H         1 UNK         0.0745 
     79 H79        34.7412   22.3727   -0.3520 H         1 UNK         0.0705 
     80 H80        33.4181   21.9470   -1.4055 H         1 UNK         0.0705 
     81 H81        34.1169   24.2367    1.5303 H         1 UNK         0.1334 
     82 H82        31.9822   27.5038   -0.2511 H         1 UNK         0.1417 
     83 H83        32.0879   23.7193   -2.2184 H         1 UNK         0.1562 
     84 H84        31.3697   25.8623   -3.4036 H         1 UNK         0.0748 
     85 H85        31.1238   27.3235   -2.4801 H         1 UNK         0.0748 
     86 H86        29.7627   26.9590   -0.0793 H         1 UNK         0.0940 
     87 H87        28.4341   25.8810    0.0306 H         1 UNK         0.0940 
     88 H88        27.3703   27.6466   -1.7888 H         1 UNK         0.0703 
     89 H89        27.1689   27.5848    1.1402 H         1 UNK         0.3081 
     90 H90        25.0743   29.3566    1.8575 H         1 UNK         0.0719 
     91 H91        23.0619   29.4665    0.4163 H         1 UNK         0.0809 
     92 H92        22.9165   27.7129    0.4235 H         1 UNK         0.0809 
     93 H93        22.6719   28.6313    1.9089 H         1 UNK         0.0809 
     94 H94        25.0190   26.3835    1.7060 H         1 UNK         0.2990 
     95 H95        26.2394   26.0868    4.8868 H         1 UNK         0.0690 
     96 H96        24.3150   24.7177    5.6655 H         1 UNK         0.0788 
     97 H97        23.2617   25.4778    4.4706 H         1 UNK         0.0788 
     98 H98        23.9379   26.4266    5.7869 H         1 UNK         0.0788 
     99 H99        24.9242   24.1434    3.2297 H         1 UNK         0.2993 
    100 H100       26.4190   22.5233    2.4574 H         1 UNK         0.0949 
    101 H101       26.4677   22.5103   -0.0486 H         1 UNK         0.0767 
    102 H102       25.3382   23.7252    0.5223 H         1 UNK         0.0767 
    103 H103       26.9176   24.2097   -0.0775 H         1 UNK         0.0767 
    104 H104       28.9905   23.7300    2.1208 H         1 UNK         0.3013 
    105 H105       28.5629   29.3361    1.0617 H         1 UNK         0.3121 
    106 H106       29.2394   31.3672    1.4821 H         1 UNK         0.0774 
    107 H107       28.2531   33.2019    0.1660 H         1 UNK         0.0815 
    108 H108       27.9828   32.1313   -1.2017 H         1 UNK         0.0815 
    109 H109       27.0961   31.8907    0.3032 H         1 UNK         0.0815 
    110 H110       31.2949   29.7552    0.1538 H         1 UNK         0.2987 
    111 H111       32.9738   31.7152   -1.2659 H         1 UNK         0.0949 
    112 H112       33.7706   28.9788   -0.1579 H         1 UNK         0.0806 
    113 H113       33.0833   29.2314   -1.7684 H         1 UNK         0.0806 
    114 H114       34.6311   29.9402   -1.3411 H         1 UNK         0.0806 
    115 H115       32.3405   30.7723    2.0345 H         1 UNK         0.3010 
    116 H116       34.0458   32.7852    3.1640 H         1 UNK         0.0829 
    117 H117       35.7065   30.8860    2.9430 H         1 UNK         0.0813 
    118 H118       35.3073   31.1586    4.6284 H         1 UNK         0.0813 
    119 H119       34.5866   29.8042    3.7659 H         1 UNK         0.0813 
    120 H120       33.6185   32.7881    5.5842 H         1 UNK         0.3038 
    121 H121       30.8631   32.7901    6.1168 H         1 UNK         0.0769 
    122 H122       33.2240   32.8360    8.0756 H         1 UNK         0.0811 
    123 H123       31.5726   33.2970    8.4639 H         1 UNK         0.0811 
    124 H124       32.4872   34.2398    7.3007 H         1 UNK         0.0811 
    125 H125       33.1707   30.1921    6.5866 H         1 UNK         0.3204 
    126 H126       31.6209   28.5625    8.3734 H         1 UNK         0.0748 
    127 H127       34.0873   28.3256    8.1169 H         1 UNK         0.0771 
    128 H128       33.2867   26.8121    7.7328 H         1 UNK         0.0771 
    129 H129       33.8865   27.8332    6.4338 H         1 UNK         0.0771 
    130 H130       31.2528   29.2048    4.9748 H         1 UNK         0.2980 
    131 H131       29.3821   26.9331    4.6509 H         1 UNK         0.0545 
    132 H132       29.0554   29.9935    5.2234 H         1 UNK         0.3459 
    133 H133       27.8831   30.4080    3.9984 H         1 UNK         0.3459 
    134 H134       30.2139   26.6709    2.2759 H         1 UNK         0.0616 
    135 H135       31.3050   26.1492    3.5142 H         1 UNK         0.0616 
    136 H136       34.3661   27.3780    1.7509 H         1 UNK         0.0634 
    137 H137       33.6457   26.2389    2.8634 H         1 UNK         0.0634 
@<TRIPOS>BOND
     1    1    2 1    
     2    1   72 1    
     3    1   73 1    
     4    1   74 1    
     5    2    3 2    
     6    2    4 am   BACKBONE|DICT|INTERRES
     7    4    5 1    
     8    4   75 1    
     9    5    6 1    
    10    5   35 1    
    11    5   76 1    
    12    6    7 1    
    13    6   77 1    
    14    6   78 1    
    15    7    8 1    
    16    8    9 1    
    17    8   79 1    
    18    8   80 1    
    19    9   10 ar   
    20    9   14 ar   
    21   10   11 ar   
    22   10   81 1    
    23   11   12 ar   
    24   11   71 1    
    25   12   13 ar   
    26   12   82 1    
    27   13   14 ar   
    28   13   15 1    
    29   14   83 1    
    30   15   16 1    
    31   15   84 1    
    32   15   85 1    
    33   16   17 1    
    34   17   18 1    
    35   17   86 1    
    36   17   87 1    
    37   18   19 1    
    38   18   37 1    
    39   18   88 1    
    40   19   20 am   BACKBONE|DICT|INTERRES
    41   19   89 1    
    42   20   21 2    
    43   20   22 1    
    44   22   23 1    
    45   22   24 1    
    46   22   90 1    
    47   23   91 1    
    48   23   92 1    
    49   23   93 1    
    50   24   25 am   BACKBONE|DICT|INTERRES
    51   24   94 1    
    52   25   26 2    
    53   25   27 1    
    54   27   28 1    
    55   27   29 1    
    56   27   95 1    
    57   28   96 1    
    58   28   97 1    
    59   28   98 1    
    60   29   30 am   BACKBONE|DICT|INTERRES
    61   29   99 1    
    62   30   31 2    
    63   30   32 1    
    64   32   33 1    
    65   32   34 1    
    66   32  100 1    
    67   33  101 1    
    68   33  102 1    
    69   33  103 1    
    70   34   35 am   BACKBONE|DICT|INTERRES
    71   34  104 1    
    72   35   36 2    
    73   37   38 2    
    74   37   39 am   BACKBONE|DICT|INTERRES
    75   39   40 1    
    76   39  105 1    
    77   40   41 1    
    78   40   42 1    
    79   40  106 1    
    80   41  107 1    
    81   41  108 1    
    82   41  109 1    
    83   42   43 2    
    84   42   44 am   BACKBONE|DICT|INTERRES
    85   44   45 1    
    86   44  110 1    
    87   45   46 1    
    88   45   47 1    
    89   45  111 1    
    90   46  112 1    
    91   46  113 1    
    92   46  114 1    
    93   47   48 2    
    94   47   49 am   BACKBONE|DICT|INTERRES
    95   49   50 1    
    96   49  115 1    
    97   50   51 1    
    98   50   52 1    
    99   50  116 1    
   100   51  117 1    
   101   51  118 1    
   102   51  119 1    
   103   52   53 2    
   104   52   54 am   BACKBONE|DICT|INTERRES
   105   54   55 1    
   106   54  120 1    
   107   55   56 1    
   108   55   57 1    
   109   55  121 1    
   110   56  122 1    
   111   56  123 1    
   112   56  124 1    
   113   57   58 2    
   114   57   59 am   BACKBONE|DICT|INTERRES
   115   59   60 1    
   116   59  125 1    
   117   60   61 1    
   118   60   62 1    
   119   60  126 1    
   120   61  127 1    
   121   61  128 1    
   122   61  129 1    
   123   62   63 2    
   124   62   64 am   BACKBONE|DICT|INTERRES
   125   64   65 1    
   126   64  130 1    
   127   65   66 1    
   128   65   69 1    
   129   65  131 1    
   130   66   67 am   BACKBONE|DICT|INTERRES
   131   66   68 2    
   132   67  132 1    
   133   67  133 1    
   134   69   70 1    
   135   69  134 1    
   136   69  135 1    
   137   70   71 1    
   138   71  136 1    
   139   71  137 1    
@<TRIPOS>SUBSTRUCTURE
     1 UNK         1 GROUP             0       ****    0 ROOT    
