@<TRIPOS>MOLECULE
3R136
137   139    1
SMALL
USER_CHARGES


@<TRIPOS>ATOM
      1 CA         28.2865   22.5606   -0.6253 C.3       0 UNK        -0.1979 
      2 C          29.2000   23.7170   -1.0038 C.2       0 UNK         0.4864 
      3 O          30.0463   23.5685   -1.8859 O.2       0 UNK        -0.5359 
      4 N          29.0327   24.8638   -0.3351 N.am      1 UNK        -0.4318 
      5 CA         29.7425   26.1158   -0.6166 C.3       1 UNK         0.0824 
      6 C6         29.8751   26.9865    0.6639 C.3       12 UNK        -0.0944 
      7 S7         31.5644   27.6105    0.9087 S.3       12 UNK        -0.2672 
      8 C8         32.4275   26.1027    1.4646 C.3       12 UNK         0.0333 
      9 C9         31.9367   25.6098    2.8192 C.ar      12 UNK        -0.0807 
     10 C10        32.2020   26.3616    3.9656 C.ar      12 UNK        -0.0894 
     11 C11        31.7980   25.9106    5.2253 C.ar      12 UNK        -0.0804 
     12 C12        31.1117   24.6976    5.3280 C.ar      12 UNK        -0.0824 
     13 C13        30.8308   23.9358    4.1883 C.ar      12 UNK        -0.0762 
     14 C14        31.2484   24.3962    2.9345 C.ar      12 UNK        -0.0782 
     15 C15        30.1087   22.5992    4.3297 C.3       12 UNK         0.0230 
     16 S16        28.4618   22.5666    3.5441 S.3       12 UNK        -0.2608 
     17 C17        27.6211   24.0042    4.2935 C.3       12 UNK        -0.0989 
     18 CA         27.1927   24.9958    3.1849 C.3       5 UNK         0.0716 
     19 N          26.0539   24.4853    2.4103 N.am      5 UNK        -0.4135 
     20 C          25.7129   24.8870    1.1808 C.2       4 UNK         0.5031 
     21 O          26.3970   25.6806    0.5203 O.2       4 UNK        -0.5229 
     22 CA         24.4052   24.3292    0.5975 C.3       4 UNK         0.0329 
     23 CB         23.2022   24.5686    1.5305 C.3       4 UNK        -0.2001 
     24 N          24.1676   24.9925   -0.6784 N.am      4 UNK        -0.4303 
     25 C          23.5368   24.4956   -1.7478 C.2       3 UNK         0.5044 
     26 O          22.9872   23.3938   -1.7709 O.2       3 UNK        -0.5152 
     27 CA         23.5186   25.3824   -3.0118 C.3       3 UNK         0.0319 
     28 CB         22.1465   26.0565   -3.1753 C.3       3 UNK        -0.2001 
     29 N          24.5629   26.4160   -3.0030 N.am      3 UNK        -0.4354 
     30 C          25.8726   26.1671   -3.1427 C.2       2 UNK         0.4964 
     31 O          26.3237   25.0574   -3.4320 O.2       2 UNK        -0.5047 
     32 CA         26.8522   27.3136   -2.8486 C.3       2 UNK         0.0288 
     33 CB         26.1890   28.6390   -2.4159 C.3       2 UNK        -0.2113 
     34 N          27.7206   26.8410   -1.7773 N.am      2 UNK        -0.4145 
     35 C          29.0578   26.8792   -1.7681 C.2       1 UNK         0.5006 
     36 O          29.7394   27.4502   -2.6209 O.2       1 UNK        -0.5103 
     37 C          26.9010   26.4195    3.7083 C.2       5 UNK         0.5055 
     38 O          26.7077   26.6220    4.9074 O.2       5 UNK        -0.5220 
     39 N          26.8577   27.3751    2.7705 N.am      6 UNK        -0.4450 
     40 CA         26.5673   28.7955    2.9787 C.3       6 UNK         0.0367 
     41 CB         26.2037   29.4149    1.6174 C.3       6 UNK        -0.1929 
     42 C          27.7061   29.5930    3.6446 C.2       6 UNK         0.5070 
     43 O          27.4851   30.7503    4.0012 O.2       6 UNK        -0.5237 
     44 N          28.8925   28.9809    3.7839 N.am      7 UNK        -0.4739 
     45 CA         30.1187   29.5449    4.3642 C.3       7 UNK         0.0276 
     46 CB         29.9368   29.8513    5.8661 C.3       7 UNK        -0.1927 
     47 C          30.6809   30.7352    3.5635 C.2       7 UNK         0.5013 
     48 O          31.1953   31.6911    4.1452 O.2       7 UNK        -0.5193 
     49 N          30.6108   30.6371    2.2299 N.am      8 UNK        -0.4253 
     50 CA         31.1717   31.5914    1.2699 C.3       8 UNK         0.0242 
     51 CB         30.3326   31.5331   -0.0213 C.3       8 UNK        -0.2000 
     52 C          32.6693   31.3138    1.0190 C.2       8 UNK         0.4948 
     53 O          33.0906   31.1774   -0.1312 O.2       8 UNK        -0.5275 
     54 N          33.4430   31.2073    2.1035 N.am      9 UNK        -0.4246 
     55 CA         34.8543   30.8345    2.1396 C.3       9 UNK         0.0261 
     56 CB         34.9950   29.3161    1.8972 C.3       9 UNK        -0.1959 
     57 C          35.4236   31.2331    3.5082 C.2       9 UNK         0.5033 
     58 O          34.6680   31.6790    4.3761 O.2       9 UNK        -0.5390 
     59 N          36.7327   31.0158    3.7058 N.am      10 UNK        -0.4215 
     60 CA         37.4628   31.2657    4.9610 C.3       10 UNK         0.0240 
     61 CB         38.9545   30.9608    4.7456 C.3       10 UNK        -0.1982 
     62 C          36.9278   30.4956    6.1882 C.2       10 UNK         0.4970 
     63 O          37.1693   30.9184    7.3193 O.2       10 UNK        -0.4916 
     64 N          36.1941   29.4042    5.9379 N.am      11 UNK        -0.4279 
     65 CA         35.3587   28.6749    6.9018 C.3       11 UNK         0.1003 
     66 C          34.2303   29.5459    7.5427 C.2       11 UNK         0.5709 
     67 N          33.7384   30.5910    6.8863 N.am      11 UNK        -0.7358 
     68 O          33.8137   29.2858    8.6687 O.2       11 UNK        -0.4999 
     69 C69        34.8254   27.3853    6.2151 C.3       12 UNK        -0.0954 
     70 S70        33.7130   26.3227    7.2017 S.3       12 UNK        -0.2268 
     71 C71        32.0902   26.7288    6.4769 C.3       12 UNK         0.0203 
     72 H72        27.5018   22.4442   -1.3725 H         1 UNK         0.0888 
     73 H73        28.8538   21.6315   -0.5759 H         1 UNK         0.0888 
     74 H74        27.8169   22.7159    0.3457 H         1 UNK         0.0888 
     75 H75        28.2609   24.9360    0.3153 H         1 UNK         0.3017 
     76 H76        30.7394   25.8535   -0.9770 H         1 UNK         0.0873 
     77 H77        29.1916   27.8379    0.6583 H         1 UNK         0.0745 
     78 H78        29.6130   26.4212    1.5564 H         1 UNK         0.0745 
     79 H79        32.3272   25.3229    0.7087 H         1 UNK         0.0705 
     80 H80        33.4944   26.3199    1.5330 H         1 UNK         0.0705 
     81 H81        32.7248   27.3007    3.8643 H         1 UNK         0.1334 
     82 H82        30.8014   24.3435    6.3018 H         1 UNK         0.1417 
     83 H83        31.0421   23.8045    2.0527 H         1 UNK         0.1562 
     84 H84        29.9953   22.3313    5.3814 H         1 UNK         0.0748 
     85 H85        30.7236   21.8160    3.8843 H         1 UNK         0.0748 
     86 H86        28.2889   24.4805    5.0127 H         1 UNK         0.0940 
     87 H87        26.7604   23.6624    4.8709 H         1 UNK         0.0940 
     88 H88        28.0432   25.0973    2.5105 H         1 UNK         0.0703 
     89 H89        25.4518   23.8342    2.8927 H         1 UNK         0.3081 
     90 H90        24.5412   23.2585    0.4322 H         1 UNK         0.0719 
     91 H91        23.0848   25.6258    1.7727 H         1 UNK         0.0809 
     92 H92        22.2734   24.2294    1.0713 H         1 UNK         0.0809 
     93 H93        23.3062   24.0248    2.4697 H         1 UNK         0.0809 
     94 H94        24.6415   25.8804   -0.7700 H         1 UNK         0.2990 
     95 H95        23.6851   24.7307   -3.8722 H         1 UNK         0.0690 
     96 H96        22.0958   26.6353   -4.0977 H         1 UNK         0.0788 
     97 H97        21.9230   26.7262   -2.3439 H         1 UNK         0.0788 
     98 H98        21.3494   25.3128   -3.2175 H         1 UNK         0.0788 
     99 H99        24.2709   27.3573   -2.7808 H         1 UNK         0.2993 
    100 H100       27.4269   27.4841   -3.7616 H         1 UNK         0.0949 
    101 H101       25.6016   28.5277   -1.5035 H         1 UNK         0.0767 
    102 H102       26.9435   29.4023   -2.2237 H         1 UNK         0.0767 
    103 H103       25.5357   29.0309   -3.1967 H         1 UNK         0.0767 
    104 H104       27.2539   26.3222   -1.0386 H         1 UNK         0.3013 
    105 H105       26.9223   27.0689    1.8056 H         1 UNK         0.3121 
    106 H106       25.6974   28.8702    3.6347 H         1 UNK         0.0774 
    107 H107       27.0354   29.3646    0.9134 H         1 UNK         0.0815 
    108 H108       25.9326   30.4662    1.7247 H         1 UNK         0.0815 
    109 H109       25.3502   28.9089    1.1658 H         1 UNK         0.0815 
    110 H110       28.9589   28.0262    3.4638 H         1 UNK         0.2987 
    111 H111       30.8735   28.7649    4.2851 H         1 UNK         0.0949 
    112 H112       29.5640   28.9809    6.4060 H         1 UNK         0.0806 
    113 H113       30.8849   30.1340    6.3243 H         1 UNK         0.0806 
    114 H114       29.2408   30.6739    6.0318 H         1 UNK         0.0806 
    115 H115       30.2302   29.7878    1.8391 H         1 UNK         0.3010 
    116 H116       31.0920   32.6014    1.6778 H         1 UNK         0.0829 
    117 H117       30.6836   32.2654   -0.7495 H         1 UNK         0.0813 
    118 H118       30.3867   30.5508   -0.4933 H         1 UNK         0.0813 
    119 H119       29.2833   31.7529    0.1768 H         1 UNK         0.0813 
    120 H120       33.0453   31.4138    3.0166 H         1 UNK         0.3038 
    121 H121       35.3916   31.3894    1.3679 H         1 UNK         0.0769 
    122 H122       34.4772   28.7375    2.6629 H         1 UNK         0.0811 
    123 H123       36.0391   29.0023    1.8962 H         1 UNK         0.0811 
    124 H124       34.5796   29.0269    0.9316 H         1 UNK         0.0811 
    125 H125       37.2793   30.6500    2.9387 H         1 UNK         0.3204 
    126 H126       37.3607   32.3291    5.1873 H         1 UNK         0.0748 
    127 H127       39.5304   31.1658    5.6494 H         1 UNK         0.0771 
    128 H128       39.1194   29.9145    4.4849 H         1 UNK         0.0771 
    129 H129       39.3760   31.5769    3.9510 H         1 UNK         0.0771 
    130 H130       36.0793   29.1375    4.9733 H         1 UNK         0.2980 
    131 H131       36.0116   28.3686    7.7209 H         1 UNK         0.0545 
    132 H132       34.0989   30.8704    5.9779 H         1 UNK         0.3459 
    133 H133       33.0255   31.1493    7.3259 H         1 UNK         0.3459 
    134 H134       35.6708   26.7632    5.9173 H         1 UNK         0.0616 
    135 H135       34.3269   27.6552    5.2868 H         1 UNK         0.0616 
    136 H136       31.3196   26.5436    7.2266 H         1 UNK         0.0634 
    137 H137       32.0425   27.7953    6.2565 H         1 UNK         0.0634 
@<TRIPOS>BOND
     1    1    2 1    
     2    1   72 1    
     3    1   73 1    
     4    1   74 1    
     5    2    3 2    
     6    2    4 am   BACKBONE|DICT|INTERRES
     7    4    5 1    
     8    4   75 1    
     9    5    6 1    
    10    5   35 1    
    11    5   76 1    
    12    6    7 1    
    13    6   77 1    
    14    6   78 1    
    15    7    8 1    
    16    8    9 1    
    17    8   79 1    
    18    8   80 1    
    19    9   10 ar   
    20    9   14 ar   
    21   10   11 ar   
    22   10   81 1    
    23   11   12 ar   
    24   11   71 1    
    25   12   13 ar   
    26   12   82 1    
    27   13   14 ar   
    28   13   15 1    
    29   14   83 1    
    30   15   16 1    
    31   15   84 1    
    32   15   85 1    
    33   16   17 1    
    34   17   18 1    
    35   17   86 1    
    36   17   87 1    
    37   18   19 1    
    38   18   37 1    
    39   18   88 1    
    40   19   20 am   BACKBONE|DICT|INTERRES
    41   19   89 1    
    42   20   21 2    
    43   20   22 1    
    44   22   23 1    
    45   22   24 1    
    46   22   90 1    
    47   23   91 1    
    48   23   92 1    
    49   23   93 1    
    50   24   25 am   BACKBONE|DICT|INTERRES
    51   24   94 1    
    52   25   26 2    
    53   25   27 1    
    54   27   28 1    
    55   27   29 1    
    56   27   95 1    
    57   28   96 1    
    58   28   97 1    
    59   28   98 1    
    60   29   30 am   BACKBONE|DICT|INTERRES
    61   29   99 1    
    62   30   31 2    
    63   30   32 1    
    64   32   33 1    
    65   32   34 1    
    66   32  100 1    
    67   33  101 1    
    68   33  102 1    
    69   33  103 1    
    70   34   35 am   BACKBONE|DICT|INTERRES
    71   34  104 1    
    72   35   36 2    
    73   37   38 2    
    74   37   39 am   BACKBONE|DICT|INTERRES
    75   39   40 1    
    76   39  105 1    
    77   40   41 1    
    78   40   42 1    
    79   40  106 1    
    80   41  107 1    
    81   41  108 1    
    82   41  109 1    
    83   42   43 2    
    84   42   44 am   BACKBONE|DICT|INTERRES
    85   44   45 1    
    86   44  110 1    
    87   45   46 1    
    88   45   47 1    
    89   45  111 1    
    90   46  112 1    
    91   46  113 1    
    92   46  114 1    
    93   47   48 2    
    94   47   49 am   BACKBONE|DICT|INTERRES
    95   49   50 1    
    96   49  115 1    
    97   50   51 1    
    98   50   52 1    
    99   50  116 1    
   100   51  117 1    
   101   51  118 1    
   102   51  119 1    
   103   52   53 2    
   104   52   54 am   BACKBONE|DICT|INTERRES
   105   54   55 1    
   106   54  120 1    
   107   55   56 1    
   108   55   57 1    
   109   55  121 1    
   110   56  122 1    
   111   56  123 1    
   112   56  124 1    
   113   57   58 2    
   114   57   59 am   BACKBONE|DICT|INTERRES
   115   59   60 1    
   116   59  125 1    
   117   60   61 1    
   118   60   62 1    
   119   60  126 1    
   120   61  127 1    
   121   61  128 1    
   122   61  129 1    
   123   62   63 2    
   124   62   64 am   BACKBONE|DICT|INTERRES
   125   64   65 1    
   126   64  130 1    
   127   65   66 1    
   128   65   69 1    
   129   65  131 1    
   130   66   67 am   BACKBONE|DICT|INTERRES
   131   66   68 2    
   132   67  132 1    
   133   67  133 1    
   134   69   70 1    
   135   69  134 1    
   136   69  135 1    
   137   70   71 1    
   138   71  136 1    
   139   71  137 1    
@<TRIPOS>SUBSTRUCTURE
     1 UNK         1 GROUP             0       ****    0 ROOT    
