@<TRIPOS>MOLECULE
3R136
137   139    1
SMALL
USER_CHARGES


@<TRIPOS>ATOM
      1 CA         27.1434   21.1477   -0.1072 C.3       0 UNK        -0.1979 
      2 C          28.0731   22.2638    0.3432 C.2       0 UNK         0.4864 
      3 O          27.6946   23.4331    0.2863 O.2       0 UNK        -0.5359 
      4 N          29.2788   21.9162    0.8126 N.am      1 UNK        -0.4318 
      5 CA         30.3431   22.8324    1.2544 C.3       1 UNK         0.0824 
      6 C6         31.7316   22.1377    1.1972 C.3       12 UNK        -0.0944 
      7 S7         32.2175   21.7451   -0.5192 S.3       12 UNK        -0.2672 
      8 C8         33.4752   23.0230   -0.8611 C.3       12 UNK         0.0333 
      9 C9         32.9555   24.4297   -0.5947 C.ar      12 UNK        -0.0807 
     10 C10        33.4217   25.1548    0.5066 C.ar      12 UNK        -0.0894 
     11 C11        32.9146   26.4262    0.7881 C.ar      12 UNK        -0.0804 
     12 C12        31.9323   26.9714   -0.0421 C.ar      12 UNK        -0.0824 
     13 C13        31.4699   26.2643   -1.1567 C.ar      12 UNK        -0.0762 
     14 C14        31.9931   24.9978   -1.4344 C.ar      12 UNK        -0.0782 
     15 C15        30.4040   26.8669   -2.0581 C.3       12 UNK         0.0230 
     16 S16        28.8164   25.9947   -1.8711 S.3       12 UNK        -0.2608 
     17 C17        27.6193   27.3405   -2.1849 C.3       12 UNK        -0.0989 
     18 CA         26.8767   27.8484   -0.9177 C.3       5 UNK         0.0716 
     19 N          26.0289   26.8351   -0.3077 N.am      5 UNK        -0.4135 
     20 C          24.7879   26.5067   -0.6725 C.2       4 UNK         0.5031 
     21 O          24.2375   26.9229   -1.6930 O.2       4 UNK        -0.5229 
     22 CA         24.0101   25.5873    0.2879 C.3       4 UNK         0.0329 
     23 CB         24.0885   24.1235   -0.1730 C.3       4 UNK        -0.2001 
     24 N          24.4734   25.6873    1.6769 N.am      4 UNK        -0.4303 
     25 C          24.3238   26.7585    2.4675 C.2       3 UNK         0.5044 
     26 O          23.7152   27.7731    2.1254 O.2       3 UNK        -0.5152 
     27 CA         24.9570   26.7095    3.8712 C.3       3 UNK         0.0319 
     28 CB         24.0481   25.9552    4.8613 C.3       3 UNK        -0.2001 
     29 N          26.3402   26.2111    3.9276 N.am      3 UNK        -0.4354 
     30 C          26.8044   24.9842    3.6583 C.2       2 UNK         0.4964 
     31 O          26.1079   24.0572    3.2370 O.2       2 UNK        -0.5047 
     32 CA         28.2895   24.7324    3.9369 C.3       2 UNK         0.0288 
     33 CB         28.4414   23.9729    5.2720 C.3       2 UNK        -0.2113 
     34 N          28.8276   23.9864    2.8032 N.am      2 UNK        -0.4145 
     35 C          30.0537   23.4819    2.6315 C.2       1 UNK         0.5006 
     36 O          30.9320   23.5127    3.4950 O.2       1 UNK        -0.5103 
     37 C          27.8136   28.3670    0.1885 C.2       5 UNK         0.5055 
     38 O          27.9358   27.7278    1.2387 O.2       5 UNK        -0.5220 
     39 N          28.4643   29.5042   -0.0690 N.am      6 UNK        -0.4450 
     40 CA         29.4858   30.0918    0.7895 C.3       6 UNK         0.0367 
     41 CB         28.8612   31.1596    1.7030 C.3       6 UNK        -0.1929 
     42 C          30.5855   30.6777   -0.1009 C.2       6 UNK         0.5070 
     43 O          30.3361   30.9648   -1.2746 O.2       6 UNK        -0.5237 
     44 N          31.7799   30.8341    0.4730 N.am      7 UNK        -0.4739 
     45 CA         32.9627   31.3896   -0.1822 C.3       7 UNK         0.0276 
     46 CB         33.6495   30.3375   -1.0774 C.3       7 UNK        -0.1927 
     47 C          33.8794   31.9231    0.9182 C.2       7 UNK         0.5013 
     48 O          34.0511   33.1361    1.0408 O.2       7 UNK        -0.5193 
     49 N          34.3653   31.0025    1.7607 N.am      8 UNK        -0.4253 
     50 CA         34.8725   31.3043    3.0969 C.3       8 UNK         0.0242 
     51 CB         35.7119   30.1179    3.5992 C.3       8 UNK        -0.2000 
     52 C          33.6817   31.5471    4.0362 C.2       8 UNK         0.4948 
     53 O          32.6467   30.8922    3.8765 O.2       8 UNK        -0.5275 
     54 N          33.8566   32.4457    5.0145 N.am      9 UNK        -0.4246 
     55 CA         32.8256   32.8347    5.9865 C.3       9 UNK         0.0261 
     56 CB         33.3593   33.9705    6.8742 C.3       9 UNK        -0.1959 
     57 C          32.3090   31.6718    6.8523 C.2       9 UNK         0.5033 
     58 O          31.1342   31.6690    7.2220 O.2       9 UNK        -0.5390 
     59 N          33.1780   30.6852    7.1163 N.am      10 UNK        -0.4215 
     60 CA         32.8637   29.4442    7.8294 C.3       10 UNK         0.0240 
     61 CB         34.1615   28.6494    8.0491 C.3       10 UNK        -0.1982 
     62 C          31.8103   28.5646    7.1285 C.2       10 UNK         0.4970 
     63 O          31.1341   27.7936    7.8107 O.2       10 UNK        -0.4916 
     64 N          31.6812   28.6953    5.8012 N.am      11 UNK        -0.4279 
     65 CA         30.6559   28.0144    4.9978 C.3       11 UNK         0.1003 
     66 C          29.2792   28.7412    5.0102 C.2       11 UNK         0.5709 
     67 N          29.1550   29.9468    5.5550 N.am      11 UNK        -0.7358 
     68 O          28.2898   28.1826    4.5457 O.2       11 UNK        -0.4999 
     69 C69        31.1509   27.7385    3.5531 C.3       12 UNK        -0.0954 
     70 S70        32.6534   26.7034    3.5342 S.3       12 UNK        -0.2268 
     71 C71        33.4470   27.2091    1.9789 C.3       12 UNK         0.0203 
     72 H72        26.2303   21.1597    0.4875 H         1 UNK         0.0888 
     73 H73        26.8710   21.2880   -1.1529 H         1 UNK         0.0888 
     74 H74        27.6045   20.1656   -0.0045 H         1 UNK         0.0888 
     75 H75        29.5215   20.9367    0.8498 H         1 UNK         0.3017 
     76 H76        30.3656   23.6686    0.5521 H         1 UNK         0.0873 
     77 H77        32.5097   22.7575    1.6446 H         1 UNK         0.0745 
     78 H78        31.7211   21.2145    1.7790 H         1 UNK         0.0745 
     79 H79        34.3616   22.8175   -0.2588 H         1 UNK         0.0705 
     80 H80        33.7883   22.9434   -1.9031 H         1 UNK         0.0705 
     81 H81        34.1706   24.7248    1.1579 H         1 UNK         0.1334 
     82 H82        31.5318   27.9484    0.1778 H         1 UNK         0.1417 
     83 H83        31.6265   24.4403   -2.2859 H         1 UNK         0.1562 
     84 H84        30.7248   26.8123   -3.0993 H         1 UNK         0.0748 
     85 H85        30.2808   27.9265   -1.8303 H         1 UNK         0.0748 
     86 H86        26.8890   26.9715   -2.9067 H         1 UNK         0.0940 
     87 H87        28.1177   28.1697   -2.6893 H         1 UNK         0.0940 
     88 H88        26.2372   28.6859   -1.2051 H         1 UNK         0.0703 
     89 H89        26.4077   26.4705    0.5580 H         1 UNK         0.3081 
     90 H90        22.9634   25.8974    0.2611 H         1 UNK         0.0719 
     91 H91        23.7176   24.0153   -1.1932 H         1 UNK         0.0809 
     92 H92        25.1127   23.7515   -0.1580 H         1 UNK         0.0809 
     93 H93        23.4862   23.4738    0.4620 H         1 UNK         0.0809 
     94 H94        24.9940   24.8993    2.0581 H         1 UNK         0.2990 
     95 H95        25.0183   27.7436    4.2144 H         1 UNK         0.0690 
     96 H96        24.4455   25.9991    5.8753 H         1 UNK         0.0788 
     97 H97        23.9317   24.9050    4.5921 H         1 UNK         0.0788 
     98 H98        23.0502   26.3950    4.8851 H         1 UNK         0.0788 
     99 H99        27.0257   26.9192    4.1918 H         1 UNK         0.2993 
    100 H100       28.8190   25.6827    3.9929 H         1 UNK         0.0949 
    101 H101       29.4830   23.9005    5.5829 H         1 UNK         0.0767 
    102 H102       27.9107   24.4864    6.0750 H         1 UNK         0.0767 
    103 H103       28.0367   22.9622    5.2066 H         1 UNK         0.0767 
    104 H104       28.1838   23.8904    2.0178 H         1 UNK         0.3013 
    105 H105       28.3755   29.9526   -0.9729 H         1 UNK         0.3121 
    106 H106       29.9318   29.3120    1.4067 H         1 UNK         0.0774 
    107 H107       29.6109   31.5997    2.3622 H         1 UNK         0.0815 
    108 H108       28.4106   31.9695    1.1281 H         1 UNK         0.0815 
    109 H109       28.0885   30.7280    2.3398 H         1 UNK         0.0815 
    110 H110       31.8736   30.6634    1.4677 H         1 UNK         0.2987 
    111 H111       32.6642   32.2375   -0.8034 H         1 UNK         0.0949 
    112 H112       33.8987   29.4266   -0.5329 H         1 UNK         0.0806 
    113 H113       33.0090   30.0545   -1.9130 H         1 UNK         0.0806 
    114 H114       34.5744   30.7310   -1.5010 H         1 UNK         0.0806 
    115 H115       34.1604   30.0336    1.5754 H         1 UNK         0.3010 
    116 H116       35.4990   32.1981    3.0547 H         1 UNK         0.0829 
    117 H117       36.5358   29.8990    2.9197 H         1 UNK         0.0813 
    118 H118       36.1485   30.3336    4.5752 H         1 UNK         0.0813 
    119 H119       35.1140   29.2112    3.7045 H         1 UNK         0.0813 
    120 H120       34.7408   32.9309    5.0768 H         1 UNK         0.3038 
    121 H121       31.9730   33.2161    5.4204 H         1 UNK         0.0769 
    122 H122       34.2370   33.6619    7.4436 H         1 UNK         0.0811 
    123 H123       32.6029   34.2930    7.5914 H         1 UNK         0.0811 
    124 H124       33.6321   34.8439    6.2815 H         1 UNK         0.0811 
    125 H125       34.1206   30.7826    6.7688 H         1 UNK         0.3204 
    126 H126       32.4587   29.7191    8.8056 H         1 UNK         0.0748 
    127 H127       33.9675   27.7313    8.6058 H         1 UNK         0.0771 
    128 H128       34.6254   28.3646    7.1036 H         1 UNK         0.0771 
    129 H129       34.8889   29.2247    8.6223 H         1 UNK         0.0771 
    130 H130       32.2384   29.3810    5.3058 H         1 UNK         0.2980 
    131 H131       30.4671   27.0397    5.4522 H         1 UNK         0.0545 
    132 H132       29.9408   30.4116    5.9920 H         1 UNK         0.3459 
    133 H133       28.2487   30.3853    5.5624 H         1 UNK         0.3459 
    134 H134       30.3860   27.2333    2.9603 H         1 UNK         0.0616 
    135 H135       31.3639   28.6821    3.0521 H         1 UNK         0.0616 
    136 H136       34.5215   27.0428    2.0690 H         1 UNK         0.0634 
    137 H137       33.3191   28.2805    1.8273 H         1 UNK         0.0634 
@<TRIPOS>BOND
     1    1    2 1    
     2    1   72 1    
     3    1   73 1    
     4    1   74 1    
     5    2    3 2    
     6    2    4 am   BACKBONE|DICT|INTERRES
     7    4    5 1    
     8    4   75 1    
     9    5    6 1    
    10    5   35 1    
    11    5   76 1    
    12    6    7 1    
    13    6   77 1    
    14    6   78 1    
    15    7    8 1    
    16    8    9 1    
    17    8   79 1    
    18    8   80 1    
    19    9   10 ar   
    20    9   14 ar   
    21   10   11 ar   
    22   10   81 1    
    23   11   12 ar   
    24   11   71 1    
    25   12   13 ar   
    26   12   82 1    
    27   13   14 ar   
    28   13   15 1    
    29   14   83 1    
    30   15   16 1    
    31   15   84 1    
    32   15   85 1    
    33   16   17 1    
    34   17   18 1    
    35   17   86 1    
    36   17   87 1    
    37   18   19 1    
    38   18   37 1    
    39   18   88 1    
    40   19   20 am   BACKBONE|DICT|INTERRES
    41   19   89 1    
    42   20   21 2    
    43   20   22 1    
    44   22   23 1    
    45   22   24 1    
    46   22   90 1    
    47   23   91 1    
    48   23   92 1    
    49   23   93 1    
    50   24   25 am   BACKBONE|DICT|INTERRES
    51   24   94 1    
    52   25   26 2    
    53   25   27 1    
    54   27   28 1    
    55   27   29 1    
    56   27   95 1    
    57   28   96 1    
    58   28   97 1    
    59   28   98 1    
    60   29   30 am   BACKBONE|DICT|INTERRES
    61   29   99 1    
    62   30   31 2    
    63   30   32 1    
    64   32   33 1    
    65   32   34 1    
    66   32  100 1    
    67   33  101 1    
    68   33  102 1    
    69   33  103 1    
    70   34   35 am   BACKBONE|DICT|INTERRES
    71   34  104 1    
    72   35   36 2    
    73   37   38 2    
    74   37   39 am   BACKBONE|DICT|INTERRES
    75   39   40 1    
    76   39  105 1    
    77   40   41 1    
    78   40   42 1    
    79   40  106 1    
    80   41  107 1    
    81   41  108 1    
    82   41  109 1    
    83   42   43 2    
    84   42   44 am   BACKBONE|DICT|INTERRES
    85   44   45 1    
    86   44  110 1    
    87   45   46 1    
    88   45   47 1    
    89   45  111 1    
    90   46  112 1    
    91   46  113 1    
    92   46  114 1    
    93   47   48 2    
    94   47   49 am   BACKBONE|DICT|INTERRES
    95   49   50 1    
    96   49  115 1    
    97   50   51 1    
    98   50   52 1    
    99   50  116 1    
   100   51  117 1    
   101   51  118 1    
   102   51  119 1    
   103   52   53 2    
   104   52   54 am   BACKBONE|DICT|INTERRES
   105   54   55 1    
   106   54  120 1    
   107   55   56 1    
   108   55   57 1    
   109   55  121 1    
   110   56  122 1    
   111   56  123 1    
   112   56  124 1    
   113   57   58 2    
   114   57   59 am   BACKBONE|DICT|INTERRES
   115   59   60 1    
   116   59  125 1    
   117   60   61 1    
   118   60   62 1    
   119   60  126 1    
   120   61  127 1    
   121   61  128 1    
   122   61  129 1    
   123   62   63 2    
   124   62   64 am   BACKBONE|DICT|INTERRES
   125   64   65 1    
   126   64  130 1    
   127   65   66 1    
   128   65   69 1    
   129   65  131 1    
   130   66   67 am   BACKBONE|DICT|INTERRES
   131   66   68 2    
   132   67  132 1    
   133   67  133 1    
   134   69   70 1    
   135   69  134 1    
   136   69  135 1    
   137   70   71 1    
   138   71  136 1    
   139   71  137 1    
@<TRIPOS>SUBSTRUCTURE
     1 UNK         1 GROUP             0       ****    0 ROOT    
