@<TRIPOS>MOLECULE
3R136
137   139    1
SMALL
USER_CHARGES


@<TRIPOS>ATOM
      1 CA         24.7079   24.2591    3.1431 C.3       0 UNK        -0.1979 
      2 C          25.5973   23.2349    2.4551 C.2       0 UNK         0.4864 
      3 O          25.1538   22.1191    2.1777 O.2       0 UNK        -0.5359 
      4 N          26.8445   23.6110    2.1523 N.am      1 UNK        -0.4318 
      5 CA         27.8070   22.8172    1.3897 C.3       1 UNK         0.0824 
      6 C6         29.2173   23.4274    1.5125 C.3       12 UNK        -0.0944 
      7 S7         30.5435   22.4094    0.7864 S.3       12 UNK        -0.2672 
      8 C8         31.9987   23.0186    1.7059 C.3       12 UNK         0.0333 
      9 C9         32.0399   24.5400    1.8122 C.ar      12 UNK        -0.0807 
     10 C10        32.0443   25.1553    3.0683 C.ar      12 UNK        -0.0894 
     11 C11        32.0742   26.5490    3.1783 C.ar      12 UNK        -0.0804 
     12 C12        32.0804   27.3280    2.0190 C.ar      12 UNK        -0.0824 
     13 C13        32.0374   26.7273    0.7584 C.ar      12 UNK        -0.0762 
     14 C14        32.0442   25.3328    0.6601 C.ar      12 UNK        -0.0782 
     15 C15        31.9627   27.5866   -0.4947 C.3       12 UNK         0.0230 
     16 S16        30.3722   28.4704   -0.6235 S.3       12 UNK        -0.2608 
     17 C17        29.1684   27.1050   -0.8079 C.3       12 UNK        -0.0989 
     18 CA         27.7905   27.4464   -0.1843 C.3       5 UNK         0.0716 
     19 N          26.7285   26.6094   -0.7479 N.am      5 UNK        -0.4135 
     20 C          25.4831   27.0448   -0.9776 C.2       4 UNK         0.5031 
     21 O          25.0686   28.1492   -0.6214 O.2       4 UNK        -0.5229 
     22 CA         24.5532   26.1326   -1.7871 C.3       4 UNK         0.0329 
     23 CB         25.0946   25.9031   -3.2104 C.3       4 UNK        -0.2001 
     24 N          24.3236   24.8418   -1.1395 N.am      4 UNK        -0.4303 
     25 C          23.1261   24.2374   -1.0745 C.2       3 UNK         0.5044 
     26 O          22.0768   24.7695   -1.4428 O.2       3 UNK        -0.5152 
     27 CA         23.0801   22.7961   -0.5190 C.3       3 UNK         0.0319 
     28 CB         21.8746   21.9879   -1.0456 C.3       3 UNK        -0.2001 
     29 N          24.3301   22.0532   -0.7147 N.am      3 UNK        -0.4354 
     30 C          24.9407   21.7641   -1.8782 C.2       2 UNK         0.4964 
     31 O          24.4434   21.9791   -2.9845 O.2       2 UNK        -0.5047 
     32 CA         26.3642   21.1663   -1.7869 C.3       2 UNK         0.0288 
     33 CB         27.2386   21.5379   -3.0043 C.3       2 UNK        -0.2113 
     34 N          27.0562   21.5026   -0.5330 N.am      2 UNK        -0.4145 
     35 C          27.3180   22.7343   -0.0680 C.2       1 UNK         0.5006 
     36 O          27.0971   23.7766   -0.6948 O.2       1 UNK        -0.5103 
     37 C          27.8061   27.3529    1.3531 C.2       5 UNK         0.5055 
     38 O          27.5681   26.2818    1.9139 O.2       5 UNK        -0.5220 
     39 N          28.1197   28.4776    2.0014 N.am      6 UNK        -0.4450 
     40 CA         28.3448   28.6073    3.4411 C.3       6 UNK         0.0367 
     41 CB         27.0119   28.5251    4.2160 C.3       6 UNK        -0.1929 
     42 C          29.1155   29.9118    3.7065 C.2       6 UNK         0.5070 
     43 O          28.7799   30.6511    4.6326 O.2       6 UNK        -0.5237 
     44 N          30.0953   30.2079    2.8397 N.am      7 UNK        -0.4739 
     45 CA         30.8546   31.4583    2.8226 C.3       7 UNK         0.0276 
     46 CB         31.7238   31.5078    1.5538 C.3       7 UNK        -0.1927 
     47 C          31.7242   31.6457    4.0754 C.2       7 UNK         0.5013 
     48 O          32.6493   30.8605    4.3000 O.2       7 UNK        -0.5193 
     49 N          31.4671   32.7273    4.8235 N.am      8 UNK        -0.4253 
     50 CA         32.2592   33.1499    5.9849 C.3       8 UNK         0.0242 
     51 CB         31.5571   34.3244    6.6844 C.3       8 UNK        -0.2000 
     52 C          33.7112   33.5211    5.6322 C.2       8 UNK         0.4948 
     53 O          34.5911   33.3861    6.4805 O.2       8 UNK        -0.5275 
     54 N          33.9502   33.9291    4.3777 N.am      9 UNK        -0.4246 
     55 CA         35.2837   34.1434    3.8114 C.3       9 UNK         0.0261 
     56 CB         35.1450   34.8265    2.4409 C.3       9 UNK        -0.1959 
     57 C          36.1131   32.8496    3.6855 C.2       9 UNK         0.5033 
     58 O          37.3421   32.9335    3.6729 O.2       9 UNK        -0.5390 
     59 N          35.4429   31.6915    3.5917 N.am      10 UNK        -0.4215 
     60 CA         36.0713   30.3741    3.5351 C.3       10 UNK         0.0240 
     61 CB         35.3027   29.4721    2.5518 C.3       10 UNK        -0.1982 
     62 C          36.1311   29.7379    4.9304 C.2       10 UNK         0.4970 
     63 O          37.2125   29.3285    5.3548 O.2       10 UNK        -0.4916 
     64 N          34.9757   29.6472    5.6026 N.am      11 UNK        -0.4279 
     65 CA         34.8088   28.8882    6.8551 C.3       11 UNK         0.1003 
     66 C          34.9108   29.7312    8.1564 C.2       11 UNK         0.5709 
     67 N          35.0572   31.0476    8.1058 N.am      11 UNK        -0.7358 
     68 O          34.8802   29.1716    9.2501 O.2       11 UNK        -0.4999 
     69 C69        33.5178   28.0288    6.8278 C.3       12 UNK        -0.0954 
     70 S70        33.5719   26.7920    5.4882 S.3       12 UNK        -0.2268 
     71 C71        32.0780   27.2163    4.5453 C.3       12 UNK         0.0203 
     72 H72        25.2327   25.1991    3.3156 H         1 UNK         0.0888 
     73 H73        24.3700   23.8765    4.1056 H         1 UNK         0.0888 
     74 H74        23.8316   24.4684    2.5305 H         1 UNK         0.0888 
     75 H75        27.1164   24.5847    2.2909 H         1 UNK         0.3017 
     76 H76        27.8300   21.8149    1.8231 H         1 UNK         0.0873 
     77 H77        29.4481   23.5790    2.5684 H         1 UNK         0.0745 
     78 H78        29.2500   24.4157    1.0544 H         1 UNK         0.0745 
     79 H79        31.9954   22.5635    2.6976 H         1 UNK         0.0705 
     80 H80        32.9049   22.6686    1.2101 H         1 UNK         0.0705 
     81 H81        32.0304   24.5522    3.9659 H         1 UNK         0.1334 
     82 H82        32.1005   28.4047    2.0952 H         1 UNK         0.1417 
     83 H83        32.0182   24.8587   -0.3118 H         1 UNK         0.1562 
     84 H84        32.1115   26.9852   -1.3930 H         1 UNK         0.0748 
     85 H85        32.7727   28.3173   -0.4765 H         1 UNK         0.0748 
     86 H86        29.5646   26.1766   -0.3974 H         1 UNK         0.0940 
     87 H87        29.0575   26.9281   -1.8790 H         1 UNK         0.0940 
     88 H88        27.5677   28.4823   -0.4516 H         1 UNK         0.0703 
     89 H89        26.9698   25.6420   -0.9481 H         1 UNK         0.3081 
     90 H90        23.6091   26.6738   -1.8800 H         1 UNK         0.0719 
     91 H91        26.0102   25.3100   -3.2066 H         1 UNK         0.0809 
     92 H92        24.3650   25.3782   -3.8275 H         1 UNK         0.0809 
     93 H93        25.3164   26.8497   -3.7051 H         1 UNK         0.0809 
     94 H94        25.1492   24.3453   -0.8214 H         1 UNK         0.2990 
     95 H95        22.9562   22.8977    0.5598 H         1 UNK         0.0690 
     96 H96        21.8630   20.9790   -0.6332 H         1 UNK         0.0788 
     97 H97        21.8849   21.9065   -2.1329 H         1 UNK         0.0788 
     98 H98        20.9326   22.4606   -0.7648 H         1 UNK         0.0788 
     99 H99        24.8177   21.8290    0.1473 H         1 UNK         0.2993 
    100 H100       26.2352   20.0828   -1.7882 H         1 UNK         0.0949 
    101 H101       26.8049   21.1573   -3.9298 H         1 UNK         0.0767 
    102 H102       27.3416   22.6180   -3.1147 H         1 UNK         0.0767 
    103 H103       28.2388   21.1130   -2.9186 H         1 UNK         0.0767 
    104 H104       27.2564   20.7170    0.0714 H         1 UNK         0.3013 
    105 H105       28.2792   29.3184    1.4622 H         1 UNK         0.3121 
    106 H106       28.9885   27.7873    3.7667 H         1 UNK         0.0774 
    107 H107       26.5083   27.5727    4.0522 H         1 UNK         0.0815 
    108 H108       26.3279   29.3210    3.9200 H         1 UNK         0.0815 
    109 H109       27.1770   28.6164    5.2902 H         1 UNK         0.0815 
    110 H110       30.3227   29.5354    2.1222 H         1 UNK         0.2987 
    111 H111       30.1346   32.2779    2.7672 H         1 UNK         0.0949 
    112 H112       32.4602   30.7040    1.5300 H         1 UNK         0.0806 
    113 H113       31.1162   31.4301    0.6519 H         1 UNK         0.0806 
    114 H114       32.2715   32.4490    1.4910 H         1 UNK         0.0806 
    115 H115       30.6776   33.3091    4.5810 H         1 UNK         0.3010 
    116 H116       32.3002   32.3093    6.6814 H         1 UNK         0.0829 
    117 H117       30.5565   34.0476    7.0171 H         1 UNK         0.0813 
    118 H118       32.1138   34.6403    7.5680 H         1 UNK         0.0813 
    119 H119       31.4670   35.1916    6.0290 H         1 UNK         0.0813 
    120 H120       33.1652   34.0418    3.7535 H         1 UNK         0.3038 
    121 H121       35.8272   34.8167    4.4778 H         1 UNK         0.0769 
    122 H122       34.5957   34.2052    1.7323 H         1 UNK         0.0811 
    123 H123       36.1248   35.0277    2.0052 H         1 UNK         0.0811 
    124 H124       34.6277   35.7826    2.5232 H         1 UNK         0.0811 
    125 H125       34.4325   31.7001    3.6657 H         1 UNK         0.3204 
    126 H126       37.0944   30.4661    3.1639 H         1 UNK         0.0748 
    127 H127       35.2873   29.9011    1.5499 H         1 UNK         0.0771 
    128 H128       35.7717   28.4901    2.4773 H         1 UNK         0.0771 
    129 H129       34.2704   29.3118    2.8619 H         1 UNK         0.0771 
    130 H130       34.1262   30.0190    5.1874 H         1 UNK         0.2980 
    131 H131       35.6369   28.1815    6.9375 H         1 UNK         0.0545 
    132 H132       35.1320   31.5575    8.9710 H         1 UNK         0.3459 
    133 H133       35.0612   31.5600    7.2330 H         1 UNK         0.3459 
    134 H134       33.3924   27.4818    7.7640 H         1 UNK         0.0616 
    135 H135       32.6372   28.6653    6.7244 H         1 UNK         0.0616 
    136 H136       32.0163   28.2995    4.4393 H         1 UNK         0.0634 
    137 H137       31.1959   26.9059    5.1068 H         1 UNK         0.0634 
@<TRIPOS>BOND
     1    1    2 1    
     2    1   72 1    
     3    1   73 1    
     4    1   74 1    
     5    2    3 2    
     6    2    4 am   BACKBONE|DICT|INTERRES
     7    4    5 1    
     8    4   75 1    
     9    5    6 1    
    10    5   35 1    
    11    5   76 1    
    12    6    7 1    
    13    6   77 1    
    14    6   78 1    
    15    7    8 1    
    16    8    9 1    
    17    8   79 1    
    18    8   80 1    
    19    9   10 ar   
    20    9   14 ar   
    21   10   11 ar   
    22   10   81 1    
    23   11   12 ar   
    24   11   71 1    
    25   12   13 ar   
    26   12   82 1    
    27   13   14 ar   
    28   13   15 1    
    29   14   83 1    
    30   15   16 1    
    31   15   84 1    
    32   15   85 1    
    33   16   17 1    
    34   17   18 1    
    35   17   86 1    
    36   17   87 1    
    37   18   19 1    
    38   18   37 1    
    39   18   88 1    
    40   19   20 am   BACKBONE|DICT|INTERRES
    41   19   89 1    
    42   20   21 2    
    43   20   22 1    
    44   22   23 1    
    45   22   24 1    
    46   22   90 1    
    47   23   91 1    
    48   23   92 1    
    49   23   93 1    
    50   24   25 am   BACKBONE|DICT|INTERRES
    51   24   94 1    
    52   25   26 2    
    53   25   27 1    
    54   27   28 1    
    55   27   29 1    
    56   27   95 1    
    57   28   96 1    
    58   28   97 1    
    59   28   98 1    
    60   29   30 am   BACKBONE|DICT|INTERRES
    61   29   99 1    
    62   30   31 2    
    63   30   32 1    
    64   32   33 1    
    65   32   34 1    
    66   32  100 1    
    67   33  101 1    
    68   33  102 1    
    69   33  103 1    
    70   34   35 am   BACKBONE|DICT|INTERRES
    71   34  104 1    
    72   35   36 2    
    73   37   38 2    
    74   37   39 am   BACKBONE|DICT|INTERRES
    75   39   40 1    
    76   39  105 1    
    77   40   41 1    
    78   40   42 1    
    79   40  106 1    
    80   41  107 1    
    81   41  108 1    
    82   41  109 1    
    83   42   43 2    
    84   42   44 am   BACKBONE|DICT|INTERRES
    85   44   45 1    
    86   44  110 1    
    87   45   46 1    
    88   45   47 1    
    89   45  111 1    
    90   46  112 1    
    91   46  113 1    
    92   46  114 1    
    93   47   48 2    
    94   47   49 am   BACKBONE|DICT|INTERRES
    95   49   50 1    
    96   49  115 1    
    97   50   51 1    
    98   50   52 1    
    99   50  116 1    
   100   51  117 1    
   101   51  118 1    
   102   51  119 1    
   103   52   53 2    
   104   52   54 am   BACKBONE|DICT|INTERRES
   105   54   55 1    
   106   54  120 1    
   107   55   56 1    
   108   55   57 1    
   109   55  121 1    
   110   56  122 1    
   111   56  123 1    
   112   56  124 1    
   113   57   58 2    
   114   57   59 am   BACKBONE|DICT|INTERRES
   115   59   60 1    
   116   59  125 1    
   117   60   61 1    
   118   60   62 1    
   119   60  126 1    
   120   61  127 1    
   121   61  128 1    
   122   61  129 1    
   123   62   63 2    
   124   62   64 am   BACKBONE|DICT|INTERRES
   125   64   65 1    
   126   64  130 1    
   127   65   66 1    
   128   65   69 1    
   129   65  131 1    
   130   66   67 am   BACKBONE|DICT|INTERRES
   131   66   68 2    
   132   67  132 1    
   133   67  133 1    
   134   69   70 1    
   135   69  134 1    
   136   69  135 1    
   137   70   71 1    
   138   71  136 1    
   139   71  137 1    
@<TRIPOS>SUBSTRUCTURE
     1 UNK         1 GROUP             0       ****    0 ROOT    
