@<TRIPOS>MOLECULE
3R136
137   139    1
SMALL
USER_CHARGES


@<TRIPOS>ATOM
      1 CA         31.9817   29.5921   -3.4690 C.3       0 UNK        -0.1979 
      2 C          30.7738   28.7771   -3.0310 C.2       0 UNK         0.4864 
      3 O          29.7067   28.8895   -3.6361 O.2       0 UNK        -0.5359 
      4 N          30.9313   27.9653   -1.9776 N.am      1 UNK        -0.4318 
      5 CA         29.9030   27.0596   -1.4612 C.3       1 UNK         0.0824 
      6 C6         30.2578   26.5927   -0.0248 C.3       12 UNK        -0.0944 
      7 S7         29.0425   25.4420    0.7093 S.3       12 UNK        -0.2672 
      8 C8         30.0853   24.0564    1.2807 C.3       12 UNK         0.0333 
      9 C9         30.1934   24.0688    2.7959 C.ar      12 UNK        -0.0807 
     10 C10        31.3077   24.6255    3.4299 C.ar      12 UNK        -0.0894 
     11 C11        31.3678   24.6886    4.8260 C.ar      12 UNK        -0.0804 
     12 C12        30.2888   24.2227    5.5839 C.ar      12 UNK        -0.0824 
     13 C13        29.1658   23.6701    4.9608 C.ar      12 UNK        -0.0762 
     14 C14        29.1489   23.5512    3.5667 C.ar      12 UNK        -0.0782 
     15 C15        27.9718   23.2250    5.8003 C.3       12 UNK         0.0230 
     16 S16        26.3627   23.7695    5.1242 S.3       12 UNK        -0.2608 
     17 C17        26.4920   25.5958    5.1531 C.3       12 UNK        -0.0989 
     18 CA         27.0350   26.1967    3.8243 C.3       5 UNK         0.0716 
     19 N          26.3749   25.6951    2.6102 N.am      5 UNK        -0.4135 
     20 C          25.0999   25.8907    2.2448 C.2       4 UNK         0.5031 
     21 O          24.2578   26.4485    2.9496 O.2       4 UNK        -0.5229 
     22 CA         24.6981   25.4307    0.8309 C.3       4 UNK         0.0329 
     23 CB         24.5380   26.6507   -0.0928 C.3       4 UNK        -0.2001 
     24 N          25.6604   24.5099    0.2182 N.am      4 UNK        -0.4303 
     25 C          25.6724   23.1810    0.3843 C.2       3 UNK         0.5044 
     26 O          24.8726   22.5825    1.1047 O.2       3 UNK        -0.5152 
     27 CA         26.7729   22.3855   -0.3540 C.3       3 UNK         0.0319 
     28 CB         26.2589   21.0300   -0.8846 C.3       3 UNK        -0.2001 
     29 N          27.4781   23.1354   -1.4093 N.am      3 UNK        -0.4354 
     30 C          26.9818   23.5879   -2.5720 C.2       2 UNK         0.4964 
     31 O          25.8107   23.4450   -2.9248 O.2       2 UNK        -0.5047 
     32 CA         27.9608   24.3891   -3.4468 C.3       2 UNK         0.0288 
     33 CB         27.3395   24.8558   -4.7777 C.3       2 UNK        -0.2113 
     34 N          28.4121   25.5565   -2.6900 N.am      2 UNK        -0.4145 
     35 C          29.6864   25.8779   -2.4334 C.2       1 UNK         0.5006 
     36 O          30.6599   25.2663   -2.8808 O.2       1 UNK        -0.5103 
     37 C          27.1097   27.7374    3.8095 C.2       5 UNK         0.5055 
     38 O          26.8059   28.3939    4.8079 O.2       5 UNK        -0.5220 
     39 N          27.4909   28.2785    2.6435 N.am      6 UNK        -0.4450 
     40 CA         27.6306   29.7067    2.3795 C.3       6 UNK         0.0367 
     41 CB         27.6334   29.9292    0.8574 C.3       6 UNK        -0.1929 
     42 C          28.9194   30.2677    2.9950 C.2       6 UNK         0.5070 
     43 O          29.9364   29.5710    3.0421 O.2       6 UNK        -0.5237 
     44 N          28.8756   31.5527    3.3729 N.am      7 UNK        -0.4739 
     45 CA         29.9998   32.3110    3.9383 C.3       7 UNK         0.0276 
     46 CB         29.5099   33.7053    4.3601 C.3       7 UNK        -0.1927 
     47 C          31.2188   32.4305    3.0048 C.2       7 UNK         0.5013 
     48 O          32.3294   32.6372    3.4929 O.2       7 UNK        -0.5193 
     49 N          31.0053   32.2436    1.6937 N.am      8 UNK        -0.4253 
     50 CA         32.0312   32.1816    0.6480 C.3       8 UNK         0.0242 
     51 CB         31.3431   32.0024   -0.7148 C.3       8 UNK        -0.2000 
     52 C          33.0948   31.0849    0.8584 C.2       8 UNK         0.4948 
     53 O          34.1982   31.2194    0.3291 O.2       8 UNK        -0.5275 
     54 N          32.7699   30.0411    1.6377 N.am      9 UNK        -0.4246 
     55 CA         33.7196   29.0145    2.0772 C.3       9 UNK         0.0261 
     56 CB         32.9395   27.7839    2.5639 C.3       9 UNK        -0.1959 
     57 C          34.6937   29.4940    3.1726 C.2       9 UNK         0.5033 
     58 O          35.6773   28.7992    3.4292 O.2       9 UNK        -0.5390 
     59 N          34.4000   30.6364    3.8169 N.am      10 UNK        -0.4215 
     60 CA         35.1448   31.2756    4.9123 C.3       10 UNK         0.0240 
     61 CB         36.5643   31.6792    4.4590 C.3       10 UNK        -0.1982 
     62 C          35.1568   30.4850    6.2380 C.2       10 UNK         0.4970 
     63 O          35.8850   30.8668    7.1556 O.2       10 UNK        -0.4916 
     64 N          34.3455   29.4245    6.3363 N.am      11 UNK        -0.4279 
     65 CA         34.1897   28.5816    7.5306 C.3       11 UNK         0.1003 
     66 C          33.2325   29.1549    8.6170 C.2       11 UNK         0.5709 
     67 N          32.5426   30.2650    8.3804 N.am      11 UNK        -0.7358 
     68 O          33.1298   28.5919    9.7045 O.2       11 UNK        -0.4999 
     69 C69        33.8547   27.1161    7.1472 C.3       12 UNK        -0.0954 
     70 S70        32.3255   26.9181    6.1698 S.3       12 UNK        -0.2268 
     71 C71        32.6007   25.2407    5.5248 C.3       12 UNK         0.0203 
     72 H72        32.7768   29.5743   -2.7235 H         1 UNK         0.0888 
     73 H73        32.3798   29.1980   -4.4036 H         1 UNK         0.0888 
     74 H74        31.6958   30.6307   -3.6328 H         1 UNK         0.0888 
     75 H75        31.8419   27.8840   -1.5493 H         1 UNK         0.3017 
     76 H76        28.9713   27.6269   -1.4019 H         1 UNK         0.0873 
     77 H77        30.3196   27.4610    0.6334 H         1 UNK         0.0745 
     78 H78        31.2492   26.1382   -0.0182 H         1 UNK         0.0745 
     79 H79        29.6382   23.1161    0.9582 H         1 UNK         0.0705 
     80 H80        31.0739   24.0851    0.8213 H         1 UNK         0.0705 
     81 H81        32.1259   25.0084    2.8367 H         1 UNK         0.1334 
     82 H82        30.3255   24.2990    6.6622 H         1 UNK         0.1417 
     83 H83        28.2863   23.1198    3.0776 H         1 UNK         0.1562 
     84 H84        28.0593   23.5924    6.8241 H         1 UNK         0.0748 
     85 H85        27.9755   22.1361    5.8616 H         1 UNK         0.0748 
     86 H86        27.1242   25.8946    5.9913 H         1 UNK         0.0940 
     87 H87        25.4993   25.9952    5.3681 H         1 UNK         0.0940 
     88 H88        28.0780   25.9022    3.7407 H         1 UNK         0.0703 
     89 H89        26.9837   25.2296    1.9523 H         1 UNK         0.3081 
     90 H90        23.7289   24.9335    0.9107 H         1 UNK         0.0719 
     91 H91        23.7960   27.3457    0.3032 H         1 UNK         0.0809 
     92 H92        25.4725   27.2022   -0.2032 H         1 UNK         0.0809 
     93 H93        24.2018   26.3542   -1.0867 H         1 UNK         0.0809 
     94 H94        26.3532   24.9115   -0.3940 H         1 UNK         0.2990 
     95 H95        27.5240   22.1646    0.4048 H         1 UNK         0.0690 
     96 H96        27.0523   20.4710   -1.3806 H         1 UNK         0.0788 
     97 H97        25.4410   21.1551   -1.5947 H         1 UNK         0.0788 
     98 H98        25.8867   20.4058   -0.0712 H         1 UNK         0.0788 
     99 H99        28.4486   23.3400   -1.2136 H         1 UNK         0.2993 
    100 H100       28.7991   23.7269   -3.6751 H         1 UNK         0.0949 
    101 H101       28.0677   25.3949   -5.3841 H         1 UNK         0.0767 
    102 H102       26.9928   24.0058   -5.3670 H         1 UNK         0.0767 
    103 H103       26.4853   25.5150   -4.6175 H         1 UNK         0.0767 
    104 H104       27.6813   26.1246   -2.2864 H         1 UNK         0.3013 
    105 H105       27.7814   27.6567    1.9041 H         1 UNK         0.3121 
    106 H106       26.7714   30.2246    2.8119 H         1 UNK         0.0774 
    107 H107       28.4896   29.4513    0.3794 H         1 UNK         0.0815 
    108 H108       26.7275   29.5351    0.3963 H         1 UNK         0.0815 
    109 H109       27.6784   30.9920    0.6162 H         1 UNK         0.0815 
    110 H110       28.0026   32.0532    3.2790 H         1 UNK         0.2987 
    111 H111       30.3361   31.7801    4.8317 H         1 UNK         0.0949 
    112 H112       28.7124   33.6397    5.1006 H         1 UNK         0.0806 
    113 H113       30.3182   34.2839    4.8101 H         1 UNK         0.0806 
    114 H114       29.1349   34.2767    3.5100 H         1 UNK         0.0806 
    115 H115       30.0533   32.0833    1.4004 H         1 UNK         0.3010 
    116 H116       32.5539   33.1403    0.6484 H         1 UNK         0.0829 
    117 H117       30.7874   31.0652   -0.7669 H         1 UNK         0.0813 
    118 H118       32.0771   31.9950   -1.5216 H         1 UNK         0.0813 
    119 H119       30.6493   32.8175   -0.9214 H         1 UNK         0.0813 
    120 H120       31.8347   29.9908    2.0287 H         1 UNK         0.3038 
    121 H121       34.3264   28.7133    1.2206 H         1 UNK         0.0769 
    122 H122       32.3847   27.3238    1.7499 H         1 UNK         0.0811 
    123 H123       32.2294   28.0374    3.3516 H         1 UNK         0.0811 
    124 H124       33.6120   27.0228    2.9616 H         1 UNK         0.0811 
    125 H125       33.5719   31.1518    3.5284 H         1 UNK         0.3204 
    126 H126       34.6030   32.1971    5.1301 H         1 UNK         0.0748 
    127 H127       37.2012   30.8098    4.2938 H         1 UNK         0.0771 
    128 H128       36.5356   32.2554    3.5341 H         1 UNK         0.0771 
    129 H129       37.0545   32.3003    5.2098 H         1 UNK         0.0771 
    130 H130       33.7709   29.1742    5.5462 H         1 UNK         0.2980 
    131 H131       35.1637   28.5434    8.0221 H         1 UNK         0.0545 
    132 H132       32.6226   30.7381    7.4957 H         1 UNK         0.3459 
    133 H133       31.9336   30.6283    9.0963 H         1 UNK         0.3459 
    134 H134       33.7817   26.4902    8.0385 H         1 UNK         0.0616 
    135 H135       34.6836   26.7063    6.5677 H         1 UNK         0.0616 
    136 H136       33.4543   25.2537    4.8453 H         1 UNK         0.0634 
    137 H137       32.8724   24.5785    6.3484 H         1 UNK         0.0634 
@<TRIPOS>BOND
     1    1    2 1    
     2    1   72 1    
     3    1   73 1    
     4    1   74 1    
     5    2    3 2    
     6    2    4 am   BACKBONE|DICT|INTERRES
     7    4    5 1    
     8    4   75 1    
     9    5    6 1    
    10    5   35 1    
    11    5   76 1    
    12    6    7 1    
    13    6   77 1    
    14    6   78 1    
    15    7    8 1    
    16    8    9 1    
    17    8   79 1    
    18    8   80 1    
    19    9   10 ar   
    20    9   14 ar   
    21   10   11 ar   
    22   10   81 1    
    23   11   12 ar   
    24   11   71 1    
    25   12   13 ar   
    26   12   82 1    
    27   13   14 ar   
    28   13   15 1    
    29   14   83 1    
    30   15   16 1    
    31   15   84 1    
    32   15   85 1    
    33   16   17 1    
    34   17   18 1    
    35   17   86 1    
    36   17   87 1    
    37   18   19 1    
    38   18   37 1    
    39   18   88 1    
    40   19   20 am   BACKBONE|DICT|INTERRES
    41   19   89 1    
    42   20   21 2    
    43   20   22 1    
    44   22   23 1    
    45   22   24 1    
    46   22   90 1    
    47   23   91 1    
    48   23   92 1    
    49   23   93 1    
    50   24   25 am   BACKBONE|DICT|INTERRES
    51   24   94 1    
    52   25   26 2    
    53   25   27 1    
    54   27   28 1    
    55   27   29 1    
    56   27   95 1    
    57   28   96 1    
    58   28   97 1    
    59   28   98 1    
    60   29   30 am   BACKBONE|DICT|INTERRES
    61   29   99 1    
    62   30   31 2    
    63   30   32 1    
    64   32   33 1    
    65   32   34 1    
    66   32  100 1    
    67   33  101 1    
    68   33  102 1    
    69   33  103 1    
    70   34   35 am   BACKBONE|DICT|INTERRES
    71   34  104 1    
    72   35   36 2    
    73   37   38 2    
    74   37   39 am   BACKBONE|DICT|INTERRES
    75   39   40 1    
    76   39  105 1    
    77   40   41 1    
    78   40   42 1    
    79   40  106 1    
    80   41  107 1    
    81   41  108 1    
    82   41  109 1    
    83   42   43 2    
    84   42   44 am   BACKBONE|DICT|INTERRES
    85   44   45 1    
    86   44  110 1    
    87   45   46 1    
    88   45   47 1    
    89   45  111 1    
    90   46  112 1    
    91   46  113 1    
    92   46  114 1    
    93   47   48 2    
    94   47   49 am   BACKBONE|DICT|INTERRES
    95   49   50 1    
    96   49  115 1    
    97   50   51 1    
    98   50   52 1    
    99   50  116 1    
   100   51  117 1    
   101   51  118 1    
   102   51  119 1    
   103   52   53 2    
   104   52   54 am   BACKBONE|DICT|INTERRES
   105   54   55 1    
   106   54  120 1    
   107   55   56 1    
   108   55   57 1    
   109   55  121 1    
   110   56  122 1    
   111   56  123 1    
   112   56  124 1    
   113   57   58 2    
   114   57   59 am   BACKBONE|DICT|INTERRES
   115   59   60 1    
   116   59  125 1    
   117   60   61 1    
   118   60   62 1    
   119   60  126 1    
   120   61  127 1    
   121   61  128 1    
   122   61  129 1    
   123   62   63 2    
   124   62   64 am   BACKBONE|DICT|INTERRES
   125   64   65 1    
   126   64  130 1    
   127   65   66 1    
   128   65   69 1    
   129   65  131 1    
   130   66   67 am   BACKBONE|DICT|INTERRES
   131   66   68 2    
   132   67  132 1    
   133   67  133 1    
   134   69   70 1    
   135   69  134 1    
   136   69  135 1    
   137   70   71 1    
   138   71  136 1    
   139   71  137 1    
@<TRIPOS>SUBSTRUCTURE
     1 UNK         1 GROUP             0       ****    0 ROOT    
