@<TRIPOS>MOLECULE
3R136
137   139    1
SMALL
USER_CHARGES


@<TRIPOS>ATOM
      1 CA         28.8574   16.5574   -1.2012 C.3       0 UNK        -0.1979 
      2 C          29.1201   17.7123   -0.2458 C.2       0 UNK         0.4864 
      3 O          29.2481   17.4921    0.9594 O.2       0 UNK        -0.5359 
      4 N          29.2035   18.9372   -0.7739 N.am      1 UNK        -0.4318 
      5 CA         29.4850   20.1682   -0.0384 C.3       1 UNK         0.0824 
      6 C6         28.2326   20.7129    0.7090 C.3       12 UNK        -0.0944 
      7 S7         28.6496   21.5582    2.2724 S.3       12 UNK        -0.2672 
      8 C8         28.2522   23.2949    1.8888 C.3       12 UNK         0.0333 
      9 C9         28.3816   24.1784    3.1193 C.ar      12 UNK        -0.0807 
     10 C10        29.6417   24.4489    3.6617 C.ar      12 UNK        -0.0894 
     11 C11        29.7677   25.2487    4.8008 C.ar      12 UNK        -0.0804 
     12 C12        28.6213   25.7874    5.3935 C.ar      12 UNK        -0.0824 
     13 C13        27.3578   25.5499    4.8406 C.ar      12 UNK        -0.0762 
     14 C14        27.2439   24.7368    3.7088 C.ar      12 UNK        -0.0782 
     15 C15        26.1152   26.1752    5.4594 C.3       12 UNK         0.0230 
     16 S16        26.1340   27.9937    5.3461 S.3       12 UNK        -0.2608 
     17 C17        26.0468   28.2895    3.5416 C.3       12 UNK        -0.0989 
     18 CA         27.4062   28.3330    2.7825 C.3       5 UNK         0.0716 
     19 N          27.2192   28.6331    1.3682 N.am      5 UNK        -0.4135 
     20 C          26.7890   27.8030    0.4156 C.2       4 UNK         0.5031 
     21 O          26.4421   26.6396    0.6270 O.2       4 UNK        -0.5229 
     22 CA         26.6932   28.3698   -1.0184 C.3       4 UNK         0.0329 
     23 CB         27.1940   29.8277   -1.1689 C.3       4 UNK        -0.2001 
     24 N          27.3417   27.4936   -2.0014 N.am      4 UNK        -0.4303 
     25 C          28.6353   27.1444   -2.0313 C.2       3 UNK         0.5044 
     26 O          29.4891   27.5665   -1.2485 O.2       3 UNK        -0.5152 
     27 CA         29.0573   26.1829   -3.1570 C.3       3 UNK         0.0319 
     28 CB         29.6307   26.9658   -4.3491 C.3       3 UNK        -0.2001 
     29 N          30.0594   25.2273   -2.6803 N.am      3 UNK        -0.4354 
     30 C          29.7938   24.2497   -1.8056 C.2       2 UNK         0.4964 
     31 O          28.6536   23.9783   -1.4208 O.2       2 UNK        -0.5047 
     32 CA         31.0101   23.4788   -1.2515 C.3       2 UNK         0.0288 
     33 CB         31.8408   24.3801   -0.3188 C.3       2 UNK        -0.2113 
     34 N          30.6124   22.2848   -0.5018 N.am      2 UNK        -0.4145 
     35 C          30.0565   21.1914   -1.0355 C.2       1 UNK         0.5006 
     36 O          29.9660   20.9872   -2.2513 O.2       1 UNK        -0.5103 
     37 C          28.4097   29.3761    3.3109 C.2       5 UNK         0.5055 
     38 O          28.6753   30.3699    2.6243 O.2       5 UNK        -0.5220 
     39 N          28.9548   29.1336    4.5106 N.am      6 UNK        -0.4450 
     40 CA         30.0072   29.8956    5.1969 C.3       6 UNK         0.0367 
     41 CB         30.1879   29.3408    6.6189 C.3       6 UNK        -0.1929 
     42 C          29.8054   31.4194    5.2585 C.2       6 UNK         0.5070 
     43 O          30.7957   32.1477    5.2681 O.2       6 UNK        -0.5237 
     44 N          28.5472   31.8810    5.2437 N.am      7 UNK        -0.4739 
     45 CA         28.1711   33.2962    5.1465 C.3       7 UNK         0.0276 
     46 CB         26.6409   33.4146    5.2299 C.3       7 UNK        -0.1927 
     47 C          28.6972   34.0035    3.8798 C.2       7 UNK         0.5013 
     48 O          28.9119   35.2157    3.9205 O.2       7 UNK        -0.5193 
     49 N          28.9067   33.2407    2.7981 N.am      8 UNK        -0.4253 
     50 CA         29.5244   33.6956    1.5518 C.3       8 UNK         0.0242 
     51 CB         28.5397   33.4761    0.3909 C.3       8 UNK        -0.2000 
     52 C          30.8455   32.9596    1.2750 C.2       8 UNK         0.4948 
     53 O          31.7901   33.5829    0.7905 O.2       8 UNK        -0.5275 
     54 N          30.8908   31.6518    1.5650 N.am      9 UNK        -0.4246 
     55 CA         32.0011   30.7575    1.2287 C.3       9 UNK         0.0261 
     56 CB         31.4633   29.3190    1.1392 C.3       9 UNK        -0.1959 
     57 C          33.1830   30.8068    2.2103 C.2       9 UNK         0.5033 
     58 O          34.2342   30.2516    1.8867 O.2       9 UNK        -0.5390 
     59 N          32.9945   31.3985    3.3999 N.am      10 UNK        -0.4215 
     60 CA         33.9122   31.4600    4.5499 C.3       10 UNK         0.0240 
     61 CB         35.2410   32.1562    4.1936 C.3       10 UNK        -0.1982 
     62 C          34.1564   30.1041    5.2413 C.2       10 UNK         0.4970 
     63 O          34.1241   30.0515    6.4713 O.2       10 UNK        -0.4916 
     64 N          34.3819   29.0469    4.4511 N.am      11 UNK        -0.4279 
     65 CA         34.6975   27.6729    4.8744 C.3       11 UNK         0.1003 
     66 C          36.0490   27.5713    5.6504 C.2       11 UNK         0.5709 
     67 N          36.2981   26.4841    6.3700 N.am      11 UNK        -0.7358 
     68 O          36.9107   28.4461    5.5628 O.2       11 UNK        -0.4999 
     69 C69        33.5004   26.9720    5.5857 C.3       12 UNK        -0.0954 
     70 S70        32.0167   26.8444    4.5321 S.3       12 UNK        -0.2268 
     71 C71        31.1409   25.5072    5.4007 C.3       12 UNK         0.0203 
     72 H72        29.6746   15.8382   -1.1545 H         1 UNK         0.0888 
     73 H73        27.9358   16.0454   -0.9263 H         1 UNK         0.0888 
     74 H74        28.7622   16.8957   -2.2328 H         1 UNK         0.0888 
     75 H75        29.1465   19.0760   -1.7764 H         1 UNK         0.3017 
     76 H76        30.2758   19.9414    0.6806 H         1 UNK         0.0873 
     77 H77        27.5723   19.8895    0.9853 H         1 UNK         0.0745 
     78 H78        27.6278   21.3603    0.0703 H         1 UNK         0.0745 
     79 H79        27.2454   23.3568    1.4721 H         1 UNK         0.0705 
     80 H80        28.9268   23.6710    1.1233 H         1 UNK         0.0705 
     81 H81        30.5253   24.0252    3.2040 H         1 UNK         0.1334 
     82 H82        28.7102   26.3984    6.2815 H         1 UNK         0.1417 
     83 H83        26.2699   24.5458    3.2789 H         1 UNK         0.1562 
     84 H84        26.0591   25.8880    6.5103 H         1 UNK         0.0748 
     85 H85        25.2061   25.7960    4.9898 H         1 UNK         0.0748 
     86 H86        25.5141   29.2304    3.3923 H         1 UNK         0.0940 
     87 H87        25.4073   27.5214    3.1037 H         1 UNK         0.0940 
     88 H88        27.8966   27.3613    2.8475 H         1 UNK         0.0703 
     89 H89        27.5443   29.5579    1.1150 H         1 UNK         0.3081 
     90 H90        25.6308   28.3658   -1.2663 H         1 UNK         0.0719 
     91 H91        28.2454   29.9354   -0.8992 H         1 UNK         0.0809 
     92 H92        27.0850   30.1722   -2.1973 H         1 UNK         0.0809 
     93 H93        26.6165   30.5125   -0.5466 H         1 UNK         0.0809 
     94 H94        26.7205   27.0680   -2.6753 H         1 UNK         0.2990 
     95 H95        28.1825   25.6239   -3.4967 H         1 UNK         0.0690 
     96 H96        29.9103   26.2993   -5.1653 H         1 UNK         0.0788 
     97 H97        30.5131   27.5416   -4.0667 H         1 UNK         0.0788 
     98 H98        28.8961   27.6693   -4.7432 H         1 UNK         0.0788 
     99 H99        31.0202   25.4238   -2.9195 H         1 UNK         0.2993 
    100 H100       31.6298   23.1656   -2.0946 H         1 UNK         0.0949 
    101 H101       32.7057   23.8498    0.0801 H         1 UNK         0.0767 
    102 H102       32.2190   25.2566   -0.8462 H         1 UNK         0.0767 
    103 H103       31.2503   24.7419    0.5245 H         1 UNK         0.0767 
    104 H104       30.6221   22.3656    0.5043 H         1 UNK         0.3013 
    105 H105       28.6239   28.3116    4.9959 H         1 UNK         0.3121 
    106 H106       30.9312   29.7186    4.6443 H         1 UNK         0.0774 
    107 H107       29.2850   29.4657    7.2179 H         1 UNK         0.0815 
    108 H108       30.4399   28.2816    6.6098 H         1 UNK         0.0815 
    109 H109       30.9992   29.8550    7.1369 H         1 UNK         0.0815 
    110 H110       27.7952   31.2072    5.2334 H         1 UNK         0.2987 
    111 H111       28.6054   33.8111    6.0062 H         1 UNK         0.0949 
    112 H112       26.1503   32.8914    4.4080 H         1 UNK         0.0806 
    113 H113       26.2604   33.0045    6.1655 H         1 UNK         0.0806 
    114 H114       26.3272   34.4586    5.1852 H         1 UNK         0.0806 
    115 H115       28.6995   32.2483    2.8672 H         1 UNK         0.3010 
    116 H116       29.7537   34.7620    1.6061 H         1 UNK         0.0829 
    117 H117       27.6232   34.0474    0.5382 H         1 UNK         0.0813 
    118 H118       28.9737   33.7980   -0.5566 H         1 UNK         0.0813 
    119 H119       28.2654   32.4260    0.2857 H         1 UNK         0.0813 
    120 H120       30.0605   31.2032    1.9478 H         1 UNK         0.3038 
    121 H121       32.3829   31.0375    0.2446 H         1 UNK         0.0769 
    122 H122       30.6100   29.2544    0.4645 H         1 UNK         0.0811 
    123 H123       31.1503   28.9408    2.1128 H         1 UNK         0.0811 
    124 H124       32.2260   28.6382    0.7595 H         1 UNK         0.0811 
    125 H125       32.0814   31.7973    3.5866 H         1 UNK         0.3204 
    126 H126       33.4137   32.0928    5.2852 H         1 UNK         0.0748 
    127 H127       35.8512   32.3022    5.0858 H         1 UNK         0.0771 
    128 H128       35.8365   31.5735    3.4905 H         1 UNK         0.0771 
    129 H129       35.0680   33.1386    3.7542 H         1 UNK         0.0771 
    130 H130       34.4255   29.2261    3.4518 H         1 UNK         0.2980 
    131 H131       34.8830   27.1322    3.9460 H         1 UNK         0.0545 
    132 H132       37.1800   26.4109    6.8526 H         1 UNK         0.3459 
    133 H133       35.6253   25.7370    6.4402 H         1 UNK         0.3459 
    134 H134       33.2338   27.4930    6.5064 H         1 UNK         0.0616 
    135 H135       33.7709   25.9563    5.8763 H         1 UNK         0.0616 
    136 H136       31.0496   25.7636    6.4573 H         1 UNK         0.0634 
    137 H137       31.7389   24.5957    5.3552 H         1 UNK         0.0634 
@<TRIPOS>BOND
     1    1    2 1    
     2    1   72 1    
     3    1   73 1    
     4    1   74 1    
     5    2    3 2    
     6    2    4 am   BACKBONE|DICT|INTERRES
     7    4    5 1    
     8    4   75 1    
     9    5    6 1    
    10    5   35 1    
    11    5   76 1    
    12    6    7 1    
    13    6   77 1    
    14    6   78 1    
    15    7    8 1    
    16    8    9 1    
    17    8   79 1    
    18    8   80 1    
    19    9   10 ar   
    20    9   14 ar   
    21   10   11 ar   
    22   10   81 1    
    23   11   12 ar   
    24   11   71 1    
    25   12   13 ar   
    26   12   82 1    
    27   13   14 ar   
    28   13   15 1    
    29   14   83 1    
    30   15   16 1    
    31   15   84 1    
    32   15   85 1    
    33   16   17 1    
    34   17   18 1    
    35   17   86 1    
    36   17   87 1    
    37   18   19 1    
    38   18   37 1    
    39   18   88 1    
    40   19   20 am   BACKBONE|DICT|INTERRES
    41   19   89 1    
    42   20   21 2    
    43   20   22 1    
    44   22   23 1    
    45   22   24 1    
    46   22   90 1    
    47   23   91 1    
    48   23   92 1    
    49   23   93 1    
    50   24   25 am   BACKBONE|DICT|INTERRES
    51   24   94 1    
    52   25   26 2    
    53   25   27 1    
    54   27   28 1    
    55   27   29 1    
    56   27   95 1    
    57   28   96 1    
    58   28   97 1    
    59   28   98 1    
    60   29   30 am   BACKBONE|DICT|INTERRES
    61   29   99 1    
    62   30   31 2    
    63   30   32 1    
    64   32   33 1    
    65   32   34 1    
    66   32  100 1    
    67   33  101 1    
    68   33  102 1    
    69   33  103 1    
    70   34   35 am   BACKBONE|DICT|INTERRES
    71   34  104 1    
    72   35   36 2    
    73   37   38 2    
    74   37   39 am   BACKBONE|DICT|INTERRES
    75   39   40 1    
    76   39  105 1    
    77   40   41 1    
    78   40   42 1    
    79   40  106 1    
    80   41  107 1    
    81   41  108 1    
    82   41  109 1    
    83   42   43 2    
    84   42   44 am   BACKBONE|DICT|INTERRES
    85   44   45 1    
    86   44  110 1    
    87   45   46 1    
    88   45   47 1    
    89   45  111 1    
    90   46  112 1    
    91   46  113 1    
    92   46  114 1    
    93   47   48 2    
    94   47   49 am   BACKBONE|DICT|INTERRES
    95   49   50 1    
    96   49  115 1    
    97   50   51 1    
    98   50   52 1    
    99   50  116 1    
   100   51  117 1    
   101   51  118 1    
   102   51  119 1    
   103   52   53 2    
   104   52   54 am   BACKBONE|DICT|INTERRES
   105   54   55 1    
   106   54  120 1    
   107   55   56 1    
   108   55   57 1    
   109   55  121 1    
   110   56  122 1    
   111   56  123 1    
   112   56  124 1    
   113   57   58 2    
   114   57   59 am   BACKBONE|DICT|INTERRES
   115   59   60 1    
   116   59  125 1    
   117   60   61 1    
   118   60   62 1    
   119   60  126 1    
   120   61  127 1    
   121   61  128 1    
   122   61  129 1    
   123   62   63 2    
   124   62   64 am   BACKBONE|DICT|INTERRES
   125   64   65 1    
   126   64  130 1    
   127   65   66 1    
   128   65   69 1    
   129   65  131 1    
   130   66   67 am   BACKBONE|DICT|INTERRES
   131   66   68 2    
   132   67  132 1    
   133   67  133 1    
   134   69   70 1    
   135   69  134 1    
   136   69  135 1    
   137   70   71 1    
   138   71  136 1    
   139   71  137 1    
@<TRIPOS>SUBSTRUCTURE
     1 UNK         1 GROUP             0       ****    0 ROOT    
