@<TRIPOS>MOLECULE
3R136
137   139    1
SMALL
USER_CHARGES


@<TRIPOS>ATOM
      1 CA         33.5604   24.0073   -3.3127 C.3       0 UNK        -0.1979 
      2 C          32.2308   24.5381   -2.7989 C.2       0 UNK         0.4864 
      3 O          31.9626   25.7358   -2.9127 O.2       0 UNK        -0.5359 
      4 N          31.3899   23.6600   -2.2366 N.am      1 UNK        -0.4318 
      5 CA         30.0713   23.9880   -1.6857 C.3       1 UNK         0.0824 
      6 C6         29.6012   22.9517   -0.6348 C.3       12 UNK        -0.0944 
      7 S7         30.6454   22.9515    0.8595 S.3       12 UNK        -0.2672 
      8 C8         30.0602   24.4798    1.6554 C.3       12 UNK         0.0333 
      9 C9         30.2659   24.4469    3.1592 C.ar      12 UNK        -0.0807 
     10 C10        31.3506   25.1064    3.7443 C.ar      12 UNK        -0.0894 
     11 C11        31.4837   25.1524    5.1357 C.ar      12 UNK        -0.0804 
     12 C12        30.5229   24.5343    5.9405 C.ar      12 UNK        -0.0824 
     13 C13        29.4367   23.8699    5.3644 C.ar      12 UNK        -0.0762 
     14 C14        29.3270   23.8074    3.9722 C.ar      12 UNK        -0.0782 
     15 C15        28.3457   23.2798    6.2447 C.3       12 UNK         0.0230 
     16 S16        26.7454   24.1166    5.9867 S.3       12 UNK        -0.2608 
     17 C17        27.1604   25.8709    6.3001 C.3       12 UNK        -0.0989 
     18 CA         27.4555   26.6734    5.0028 C.3       5 UNK         0.0716 
     19 N          26.3867   26.5316    4.0100 N.am      5 UNK        -0.4135 
     20 C          26.3543   27.0858    2.7915 C.2       4 UNK         0.5031 
     21 O          27.2410   27.8176    2.3424 O.2       4 UNK        -0.5229 
     22 CA         25.0845   26.7907    1.9682 C.3       4 UNK         0.0329 
     23 CB         23.8692   27.5093    2.5821 C.3       4 UNK        -0.2001 
     24 N          25.1793   27.1794    0.5583 N.am      4 UNK        -0.4303 
     25 C          26.0296   26.6759   -0.3446 C.2       3 UNK         0.5044 
     26 O          26.8503   25.7840   -0.1061 O.2       3 UNK        -0.5152 
     27 CA         25.9267   27.2629   -1.7624 C.3       3 UNK         0.0319 
     28 CB         26.0478   28.8009   -1.7759 C.3       3 UNK        -0.2001 
     29 N          26.9837   26.6781   -2.5774 N.am      3 UNK        -0.4354 
     30 C          26.9707   26.4775   -3.8994 C.2       2 UNK         0.4964 
     31 O          26.0325   26.8017   -4.6286 O.2       2 UNK        -0.5047 
     32 CA         28.2187   25.8175   -4.5243 C.3       2 UNK         0.0288 
     33 CB         28.9473   26.8070   -5.4493 C.3       2 UNK        -0.2113 
     34 N          29.1742   25.3211   -3.5282 N.am      2 UNK        -0.4145 
     35 C          29.0311   24.2033   -2.8051 C.2       1 UNK         0.5006 
     36 O          28.1274   23.3851   -2.9867 O.2       1 UNK        -0.5103 
     37 C          27.7354   28.1544    5.3227 C.2       5 UNK         0.5055 
     38 O          26.8477   28.8381    5.8366 O.2       5 UNK        -0.5220 
     39 N          28.9446   28.6155    4.9747 N.am      6 UNK        -0.4450 
     40 CA         29.4534   29.9886    5.0843 C.3       6 UNK         0.0367 
     41 CB         29.4315   30.4933    6.5425 C.3       6 UNK        -0.1929 
     42 C          28.8200   30.9942    4.1001 C.2       6 UNK         0.5070 
     43 O          29.1901   32.1689    4.1333 O.2       6 UNK        -0.5237 
     44 N          27.9230   30.5376    3.2134 N.am      7 UNK        -0.4739 
     45 CA         27.5406   31.2581    1.9967 C.3       7 UNK         0.0276 
     46 CB         26.1023   30.9007    1.5873 C.3       7 UNK        -0.1927 
     47 C          28.5444   30.9171    0.8850 C.2       7 UNK         0.5013 
     48 O          29.0101   31.8204    0.1897 O.2       7 UNK        -0.5193 
     49 N          28.9041   29.6297    0.7900 N.am      8 UNK        -0.4253 
     50 CA         30.0999   29.1496    0.1081 C.3       8 UNK         0.0242 
     51 CB         29.7753   27.8590   -0.6579 C.3       8 UNK        -0.2000 
     52 C          31.1815   28.8916    1.1659 C.2       8 UNK         0.4948 
     53 O          30.8692   28.3458    2.2280 O.2       8 UNK        -0.5275 
     54 N          32.4230   29.2668    0.8238 N.am      9 UNK        -0.4246 
     55 CA         33.6497   29.2270    1.6333 C.3       9 UNK         0.0261 
     56 CB         33.9354   27.8018    2.1524 C.3       9 UNK        -0.1959 
     57 C          33.6588   30.2467    2.7894 C.2       9 UNK         0.5033 
     58 O          32.6175   30.7745    3.1840 O.2       9 UNK        -0.5390 
     59 N          34.8625   30.5084    3.3156 N.am      10 UNK        -0.4215 
     60 CA         35.0738   31.3351    4.5086 C.3       10 UNK         0.0240 
     61 CB         36.5123   31.8792    4.5041 C.3       10 UNK        -0.1982 
     62 C          34.7950   30.5643    5.8120 C.2       10 UNK         0.4970 
     63 O          34.4094   31.1850    6.8037 O.2       10 UNK        -0.4916 
     64 N          35.0016   29.2393    5.7795 N.am      11 UNK        -0.4279 
     65 CA         34.8587   28.2988    6.9026 C.3       11 UNK         0.1003 
     66 C          35.8514   28.5857    8.0729 C.2       11 UNK         0.5709 
     67 N          35.5851   28.1014    9.2798 N.am      11 UNK        -0.7358 
     68 O          36.9023   29.1984    7.8860 O.2       11 UNK        -0.4999 
     69 C69        33.3788   28.1105    7.3532 C.3       12 UNK        -0.0954 
     70 S70        32.2516   27.6529    5.9940 S.3       12 UNK        -0.2268 
     71 C71        32.6453   25.8910    5.7792 C.3       12 UNK         0.0203 
     72 H72        33.6645   22.9357   -3.1436 H         1 UNK         0.0888 
     73 H73        33.6495   24.1928   -4.3826 H         1 UNK         0.0888 
     74 H74        34.3843   24.5119   -2.8090 H         1 UNK         0.0888 
     75 H75        31.6552   22.6871   -2.1778 H         1 UNK         0.3017 
     76 H76        30.1538   24.9461   -1.1701 H         1 UNK         0.0873 
     77 H77        28.5712   23.1463   -0.3273 H         1 UNK         0.0745 
     78 H78        29.6018   21.9462   -1.0596 H         1 UNK         0.0745 
     79 H79        30.5830   25.3337    1.2214 H         1 UNK         0.0705 
     80 H80        29.0002   24.6351    1.4462 H         1 UNK         0.0705 
     81 H81        32.0738   25.6062    3.1164 H         1 UNK         0.1334 
     82 H82        30.6095   24.5939    7.0170 H         1 UNK         0.1417 
     83 H83        28.4774   23.3103    3.5233 H         1 UNK         0.1562 
     84 H84        28.6148   23.3444    7.3002 H         1 UNK         0.0748 
     85 H85        28.2344   22.2184    6.0186 H         1 UNK         0.0748 
     86 H86        28.0100   25.9232    6.9838 H         1 UNK         0.0940 
     87 H87        26.3193   26.3142    6.8371 H         1 UNK         0.0940 
     88 H88        28.3544   26.2654    4.5424 H         1 UNK         0.0703 
     89 H89        25.6104   25.9559    4.3000 H         1 UNK         0.3081 
     90 H90        24.9111   25.7130    1.9999 H         1 UNK         0.0719 
     91 H91        23.9994   28.5924    2.5806 H         1 UNK         0.0809 
     92 H92        22.9540   27.2808    2.0354 H         1 UNK         0.0809 
     93 H93        23.7036   27.2053    3.6164 H         1 UNK         0.0809 
     94 H94        24.5531   27.9122    0.2610 H         1 UNK         0.2990 
     95 H95        24.9576   26.9699   -2.1715 H         1 UNK         0.0690 
     96 H96        25.2105   29.2735   -1.2622 H         1 UNK         0.0788 
     97 H97        26.0522   29.1893   -2.7945 H         1 UNK         0.0788 
     98 H98        26.9623   29.1386   -1.2889 H         1 UNK         0.0788 
     99 H99        27.7455   26.2953   -2.0345 H         1 UNK         0.2993 
    100 H100       27.8718   24.9742   -5.1253 H         1 UNK         0.0949 
    101 H101       29.7997   26.3367   -5.9401 H         1 UNK         0.0767 
    102 H102       28.2838   27.1715   -6.2348 H         1 UNK         0.0767 
    103 H103       29.3129   27.6762   -4.9009 H         1 UNK         0.0767 
    104 H104       30.0084   25.8785   -3.3666 H         1 UNK         0.3013 
    105 H105       29.5782   27.9827    4.5001 H         1 UNK         0.3121 
    106 H106       30.5007   29.9231    4.7847 H         1 UNK         0.0774 
    107 H107       29.9673   31.4389    6.6332 H         1 UNK         0.0815 
    108 H108       28.4164   30.6625    6.9017 H         1 UNK         0.0815 
    109 H109       29.9160   29.7841    7.2137 H         1 UNK         0.0815 
    110 H110       27.6861   29.5511    3.2375 H         1 UNK         0.2987 
    111 H111       27.5812   32.3347    2.1768 H         1 UNK         0.0949 
    112 H112       26.0027   29.8540    1.3052 H         1 UNK         0.0806 
    113 H113       25.3989   31.0989    2.3960 H         1 UNK         0.0806 
    114 H114       25.7877   31.4956    0.7290 H         1 UNK         0.0806 
    115 H115       28.4669   28.9601    1.4195 H         1 UNK         0.3010 
    116 H116       30.4595   29.8953   -0.6044 H         1 UNK         0.0829 
    117 H117       29.1093   28.0631   -1.4940 H         1 UNK         0.0813 
    118 H118       30.6807   27.4112   -1.0695 H         1 UNK         0.0813 
    119 H119       29.3011   27.1181   -0.0132 H         1 UNK         0.0813 
    120 H120       32.5358   29.7108   -0.0769 H         1 UNK         0.3038 
    121 H121       34.4549   29.5043    0.9510 H         1 UNK         0.0769 
    122 H122       34.9583   27.7119    2.5183 H         1 UNK         0.0811 
    123 H123       33.8059   27.0551    1.3690 H         1 UNK         0.0811 
    124 H124       33.2758   27.5414    2.9800 H         1 UNK         0.0811 
    125 H125       35.6798   30.0742    2.9102 H         1 UNK         0.3204 
    126 H126       34.3905   32.1869    4.4751 H         1 UNK         0.0748 
    127 H127       36.6879   32.5205    5.3691 H         1 UNK         0.0771 
    128 H128       37.2505   31.0769    4.5396 H         1 UNK         0.0771 
    129 H129       36.7075   32.4780    3.6142 H         1 UNK         0.0771 
    130 H130       35.3405   28.8344    4.9218 H         1 UNK         0.2980 
    131 H131       35.1945   27.3411    6.5044 H         1 UNK         0.0545 
    132 H132       36.2394   28.2696   10.0279 H         1 UNK         0.3459 
    133 H133       34.7432   27.5773    9.4592 H         1 UNK         0.3459 
    134 H134       33.2957   27.3420    8.1225 H         1 UNK         0.0616 
    135 H135       33.0016   29.0296    7.8043 H         1 UNK         0.0616 
    136 H136       33.5424   25.7946    5.1659 H         1 UNK         0.0634 
    137 H137       32.8797   25.4404    6.7447 H         1 UNK         0.0634 
@<TRIPOS>BOND
     1    1    2 1    
     2    1   72 1    
     3    1   73 1    
     4    1   74 1    
     5    2    3 2    
     6    2    4 am   BACKBONE|DICT|INTERRES
     7    4    5 1    
     8    4   75 1    
     9    5    6 1    
    10    5   35 1    
    11    5   76 1    
    12    6    7 1    
    13    6   77 1    
    14    6   78 1    
    15    7    8 1    
    16    8    9 1    
    17    8   79 1    
    18    8   80 1    
    19    9   10 ar   
    20    9   14 ar   
    21   10   11 ar   
    22   10   81 1    
    23   11   12 ar   
    24   11   71 1    
    25   12   13 ar   
    26   12   82 1    
    27   13   14 ar   
    28   13   15 1    
    29   14   83 1    
    30   15   16 1    
    31   15   84 1    
    32   15   85 1    
    33   16   17 1    
    34   17   18 1    
    35   17   86 1    
    36   17   87 1    
    37   18   19 1    
    38   18   37 1    
    39   18   88 1    
    40   19   20 am   BACKBONE|DICT|INTERRES
    41   19   89 1    
    42   20   21 2    
    43   20   22 1    
    44   22   23 1    
    45   22   24 1    
    46   22   90 1    
    47   23   91 1    
    48   23   92 1    
    49   23   93 1    
    50   24   25 am   BACKBONE|DICT|INTERRES
    51   24   94 1    
    52   25   26 2    
    53   25   27 1    
    54   27   28 1    
    55   27   29 1    
    56   27   95 1    
    57   28   96 1    
    58   28   97 1    
    59   28   98 1    
    60   29   30 am   BACKBONE|DICT|INTERRES
    61   29   99 1    
    62   30   31 2    
    63   30   32 1    
    64   32   33 1    
    65   32   34 1    
    66   32  100 1    
    67   33  101 1    
    68   33  102 1    
    69   33  103 1    
    70   34   35 am   BACKBONE|DICT|INTERRES
    71   34  104 1    
    72   35   36 2    
    73   37   38 2    
    74   37   39 am   BACKBONE|DICT|INTERRES
    75   39   40 1    
    76   39  105 1    
    77   40   41 1    
    78   40   42 1    
    79   40  106 1    
    80   41  107 1    
    81   41  108 1    
    82   41  109 1    
    83   42   43 2    
    84   42   44 am   BACKBONE|DICT|INTERRES
    85   44   45 1    
    86   44  110 1    
    87   45   46 1    
    88   45   47 1    
    89   45  111 1    
    90   46  112 1    
    91   46  113 1    
    92   46  114 1    
    93   47   48 2    
    94   47   49 am   BACKBONE|DICT|INTERRES
    95   49   50 1    
    96   49  115 1    
    97   50   51 1    
    98   50   52 1    
    99   50  116 1    
   100   51  117 1    
   101   51  118 1    
   102   51  119 1    
   103   52   53 2    
   104   52   54 am   BACKBONE|DICT|INTERRES
   105   54   55 1    
   106   54  120 1    
   107   55   56 1    
   108   55   57 1    
   109   55  121 1    
   110   56  122 1    
   111   56  123 1    
   112   56  124 1    
   113   57   58 2    
   114   57   59 am   BACKBONE|DICT|INTERRES
   115   59   60 1    
   116   59  125 1    
   117   60   61 1    
   118   60   62 1    
   119   60  126 1    
   120   61  127 1    
   121   61  128 1    
   122   61  129 1    
   123   62   63 2    
   124   62   64 am   BACKBONE|DICT|INTERRES
   125   64   65 1    
   126   64  130 1    
   127   65   66 1    
   128   65   69 1    
   129   65  131 1    
   130   66   67 am   BACKBONE|DICT|INTERRES
   131   66   68 2    
   132   67  132 1    
   133   67  133 1    
   134   69   70 1    
   135   69  134 1    
   136   69  135 1    
   137   70   71 1    
   138   71  136 1    
   139   71  137 1    
@<TRIPOS>SUBSTRUCTURE
     1 UNK         1 GROUP             0       ****    0 ROOT    
