@<TRIPOS>MOLECULE
3R136
137   139    1
SMALL
USER_CHARGES


@<TRIPOS>ATOM
      1 CA         25.4946   20.3467    1.6205 C.3       0 UNK        -0.1979 
      2 C          26.1361   21.5516    0.9486 C.2       0 UNK         0.4864 
      3 O          25.4966   22.2047    0.1242 O.2       0 UNK        -0.5359 
      4 N          27.3948   21.8508    1.2959 N.am      1 UNK        -0.4318 
      5 CA         28.1720   22.9789    0.7661 C.3       1 UNK         0.0824 
      6 C6         29.6890   22.6779    0.7505 C.3       12 UNK        -0.0944 
      7 S7         30.3663   22.0940    2.3439 S.3       12 UNK        -0.2672 
      8 C8         31.9411   21.3586    1.7932 C.3       12 UNK         0.0333 
      9 C9         32.8720   22.4242    1.2367 C.ar      12 UNK        -0.0807 
     10 C10        33.6379   23.2039    2.1068 C.ar      12 UNK        -0.0894 
     11 C11        34.4268   24.2472    1.6155 C.ar      12 UNK        -0.0804 
     12 C12        34.4598   24.4982    0.2412 C.ar      12 UNK        -0.0824 
     13 C13        33.6808   23.7355   -0.6370 C.ar      12 UNK        -0.0762 
     14 C14        32.9143   22.6793   -0.1376 C.ar      12 UNK        -0.0782 
     15 C15        33.5757   24.1271   -2.1065 C.3       12 UNK         0.0230 
     16 S16        31.9949   24.9797   -2.4693 S.3       12 UNK        -0.2608 
     17 C17        31.8855   26.1185   -1.0498 C.3       12 UNK        -0.0989 
     18 CA         30.8904   27.2909   -1.2018 C.3       5 UNK         0.0716 
     19 N          29.5201   26.8653   -1.5010 N.am      5 UNK        -0.4135 
     20 C          28.5466   27.7003   -1.8922 C.2       4 UNK         0.5031 
     21 O          28.7294   28.8889   -2.1579 O.2       4 UNK        -0.5229 
     22 CA         27.1201   27.1409   -1.9512 C.3       4 UNK         0.0329 
     23 CB         27.0523   25.6466   -2.3217 C.3       4 UNK        -0.2001 
     24 N          26.5121   27.3589   -0.6400 N.am      4 UNK        -0.4303 
     25 C          25.6026   28.3032   -0.3576 C.2       3 UNK         0.5044 
     26 O          25.0922   29.0291   -1.2122 O.2       3 UNK        -0.5152 
     27 CA         25.2098   28.5187    1.1213 C.3       3 UNK         0.0319 
     28 CB         23.6802   28.6013    1.3142 C.3       3 UNK        -0.2001 
     29 N          25.8287   27.5787    2.0671 N.am      3 UNK        -0.4354 
     30 C          25.5711   26.2698    2.1905 C.2       2 UNK         0.4964 
     31 O          24.7052   25.6656    1.5556 O.2       2 UNK        -0.5047 
     32 CA         26.4649   25.4903    3.1665 C.3       2 UNK         0.0288 
     33 CB         25.6695   25.0487    4.4054 C.3       2 UNK        -0.2113 
     34 N          27.0411   24.3124    2.5143 N.am      2 UNK        -0.4145 
     35 C          27.8482   24.3321    1.4416 C.2       1 UNK         0.5006 
     36 O          28.3186   25.3707    0.9633 O.2       1 UNK        -0.5103 
     37 C          30.9200   28.1176    0.0963 C.2       5 UNK         0.5055 
     38 O          31.4845   29.2120    0.1204 O.2       5 UNK        -0.5220 
     39 N          30.3073   27.5697    1.1555 N.am      6 UNK        -0.4450 
     40 CA         30.2637   28.1558    2.4902 C.3       6 UNK         0.0367 
     41 CB         30.2301   27.0278    3.5368 C.3       6 UNK        -0.1929 
     42 C          29.0838   29.1316    2.5965 C.2       6 UNK         0.5070 
     43 O          28.1311   28.8865    3.3400 O.2       6 UNK        -0.5237 
     44 N          29.1656   30.2215    1.8254 N.am      7 UNK        -0.4739 
     45 CA         28.2341   31.3483    1.8345 C.3       7 UNK         0.0276 
     46 CB         28.4956   32.2200    0.5945 C.3       7 UNK        -0.1927 
     47 C          28.3834   32.1426    3.1406 C.2       7 UNK         0.5013 
     48 O          29.2971   32.9603    3.2480 O.2       7 UNK        -0.5193 
     49 N          27.5305   31.8285    4.1267 N.am      8 UNK        -0.4253 
     50 CA         27.5727   32.3188    5.5113 C.3       8 UNK         0.0242 
     51 CB         27.2675   33.8315    5.5764 C.3       8 UNK        -0.2000 
     52 C          28.8848   31.9305    6.2248 C.2       8 UNK         0.4948 
     53 O          29.4970   32.7661    6.8921 O.2       8 UNK        -0.5275 
     54 N          29.2866   30.6600    6.0528 N.am      9 UNK        -0.4246 
     55 CA         30.4935   30.0290    6.6053 C.3       9 UNK         0.0261 
     56 CB         30.4344   29.9669    8.1473 C.3       9 UNK        -0.1959 
     57 C          31.8085   30.6394    6.0772 C.2       9 UNK         0.5033 
     58 O          32.7809   30.7474    6.8275 O.2       9 UNK        -0.5390 
     59 N          31.8315   30.9864    4.7801 N.am      10 UNK        -0.4215 
     60 CA         32.9718   31.5694    4.0549 C.3       10 UNK         0.0240 
     61 CB         32.5739   31.8109    2.5893 C.3       10 UNK        -0.1982 
     62 C          34.2871   30.7653    4.1122 C.2       10 UNK         0.4970 
     63 O          35.3520   31.3556    3.9254 O.2       10 UNK        -0.4916 
     64 N          34.2012   29.4553    4.3784 N.am      11 UNK        -0.4279 
     65 CA         35.3496   28.5751    4.6454 C.3       11 UNK         0.1003 
     66 C          36.1170   28.9044    5.9617 C.2       11 UNK         0.5709 
     67 N          35.5469   29.6500    6.9029 N.am      11 UNK        -0.7358 
     68 O          37.2560   28.4745    6.1282 O.2       11 UNK        -0.4999 
     69 C69        34.9413   27.0788    4.6276 C.3       12 UNK        -0.0954 
     70 S70        34.1499   26.5600    3.0680 S.3       12 UNK        -0.2268 
     71 C71        35.1838   25.1423    2.5821 C.3       12 UNK         0.0203 
     72 H72        24.6052   20.6529    2.1705 H         1 UNK         0.0888 
     73 H73        25.1964   19.6142    0.8710 H         1 UNK         0.0888 
     74 H74        26.1743   19.8588    2.3189 H         1 UNK         0.0888 
     75 H75        27.8821   21.2771    1.9714 H         1 UNK         0.3017 
     76 H76        27.8791   23.1079   -0.2773 H         1 UNK         0.0873 
     77 H77        29.8814   21.9078    0.0020 H         1 UNK         0.0745 
     78 H78        30.2548   23.5519    0.4232 H         1 UNK         0.0745 
     79 H79        31.7470   20.5854    1.0481 H         1 UNK         0.0705 
     80 H80        32.4152   20.8578    2.6386 H         1 UNK         0.0705 
     81 H81        33.5845   23.0263    3.1725 H         1 UNK         0.1334 
     82 H82        35.0410   25.3293   -0.1348 H         1 UNK         0.1417 
     83 H83        32.2962   22.1034   -0.8129 H         1 UNK         0.1562 
     84 H84        33.6577   23.2384   -2.7339 H         1 UNK         0.0748 
     85 H85        34.4036   24.7795   -2.3884 H         1 UNK         0.0748 
     86 H86        32.8839   26.5241   -0.8733 H         1 UNK         0.0940 
     87 H87        31.6408   25.5200   -0.1694 H         1 UNK         0.0940 
     88 H88        31.2357   27.9284   -2.0188 H         1 UNK         0.0703 
     89 H89        29.2858   25.9075   -1.2857 H         1 UNK         0.3081 
     90 H90        26.5857   27.6963   -2.7248 H         1 UNK         0.0719 
     91 H91        26.0174   25.3229   -2.4353 H         1 UNK         0.0809 
     92 H92        27.5546   25.4559   -3.2712 H         1 UNK         0.0809 
     93 H93        27.5103   25.0065   -1.5713 H         1 UNK         0.0809 
     94 H94        26.9018   26.8208    0.1242 H         1 UNK         0.2990 
     95 H95        25.6081   29.4956    1.3872 H         1 UNK         0.0690 
     96 H96        23.1751   27.6972    0.9740 H         1 UNK         0.0788 
     97 H97        23.2607   29.4336    0.7477 H         1 UNK         0.0788 
     98 H98        23.4190   28.7602    2.3605 H         1 UNK         0.0788 
     99 H99        26.5803   27.9740    2.6287 H         1 UNK         0.2993 
    100 H100       27.2760   26.1375    3.4981 H         1 UNK         0.0949 
    101 H101       24.8464   24.3831    4.1414 H         1 UNK         0.0767 
    102 H102       26.3064   24.5290    5.1216 H         1 UNK         0.0767 
    103 H103       25.2405   25.9100    4.9195 H         1 UNK         0.0767 
    104 H104       26.6901   23.4162    2.8156 H         1 UNK         0.3013 
    105 H105       29.7847   26.7073    1.0313 H         1 UNK         0.3121 
    106 H106       31.1757   28.7296    2.6673 H         1 UNK         0.0774 
    107 H107       30.0544   27.4138    4.5404 H         1 UNK         0.0815 
    108 H108       29.4542   26.2968    3.3246 H         1 UNK         0.0815 
    109 H109       31.1770   26.4894    3.5598 H         1 UNK         0.0815 
    110 H110       29.9712   30.3039    1.2148 H         1 UNK         0.2987 
    111 H111       27.2139   30.9723    1.7699 H         1 UNK         0.0949 
    112 H112       29.5177   32.6008    0.5726 H         1 UNK         0.0806 
    113 H113       28.3294   31.6578   -0.3251 H         1 UNK         0.0806 
    114 H114       27.8260   33.0808    0.5747 H         1 UNK         0.0806 
    115 H115       26.8515   31.1011    3.9454 H         1 UNK         0.3010 
    116 H116       26.7741   31.8022    6.0462 H         1 UNK         0.0829 
    117 H117       27.1784   34.1664    6.6106 H         1 UNK         0.0813 
    118 H118       28.0539   34.4265    5.1111 H         1 UNK         0.0813 
    119 H119       26.3278   34.0687    5.0778 H         1 UNK         0.0813 
    120 H120       28.7051   30.0624    5.4782 H         1 UNK         0.3038 
    121 H121       30.4841   28.9993    6.2478 H         1 UNK         0.0769 
    122 H122       31.2543   29.3681    8.5459 H         1 UNK         0.0811 
    123 H123       29.5061   29.5115    8.4919 H         1 UNK         0.0811 
    124 H124       30.5106   30.9572    8.5972 H         1 UNK         0.0811 
    125 H125       30.9640   30.9344    4.2682 H         1 UNK         0.3204 
    126 H126       33.1762   32.5379    4.5154 H         1 UNK         0.0748 
    127 H127       33.3993   32.2486    2.0258 H         1 UNK         0.0771 
    128 H128       32.2972   30.8841    2.0874 H         1 UNK         0.0771 
    129 H129       31.7372   32.5032    2.5093 H         1 UNK         0.0771 
    130 H130       33.2912   29.0440    4.5089 H         1 UNK         0.2980 
    131 H131       36.0634   28.7293    3.8340 H         1 UNK         0.0545 
    132 H132       34.6049   30.0123    6.7890 H         1 UNK         0.3459 
    133 H133       36.0607   29.8537    7.7449 H         1 UNK         0.3459 
    134 H134       35.8161   26.4512    4.8070 H         1 UNK         0.0616 
    135 H135       34.2457   26.8656    5.4413 H         1 UNK         0.0616 
    136 H136       36.1096   25.5027    2.1313 H         1 UNK         0.0634 
    137 H137       35.4672   24.5676    3.4652 H         1 UNK         0.0634 
@<TRIPOS>BOND
     1    1    2 1    
     2    1   72 1    
     3    1   73 1    
     4    1   74 1    
     5    2    3 2    
     6    2    4 am   BACKBONE|DICT|INTERRES
     7    4    5 1    
     8    4   75 1    
     9    5    6 1    
    10    5   35 1    
    11    5   76 1    
    12    6    7 1    
    13    6   77 1    
    14    6   78 1    
    15    7    8 1    
    16    8    9 1    
    17    8   79 1    
    18    8   80 1    
    19    9   10 ar   
    20    9   14 ar   
    21   10   11 ar   
    22   10   81 1    
    23   11   12 ar   
    24   11   71 1    
    25   12   13 ar   
    26   12   82 1    
    27   13   14 ar   
    28   13   15 1    
    29   14   83 1    
    30   15   16 1    
    31   15   84 1    
    32   15   85 1    
    33   16   17 1    
    34   17   18 1    
    35   17   86 1    
    36   17   87 1    
    37   18   19 1    
    38   18   37 1    
    39   18   88 1    
    40   19   20 am   BACKBONE|DICT|INTERRES
    41   19   89 1    
    42   20   21 2    
    43   20   22 1    
    44   22   23 1    
    45   22   24 1    
    46   22   90 1    
    47   23   91 1    
    48   23   92 1    
    49   23   93 1    
    50   24   25 am   BACKBONE|DICT|INTERRES
    51   24   94 1    
    52   25   26 2    
    53   25   27 1    
    54   27   28 1    
    55   27   29 1    
    56   27   95 1    
    57   28   96 1    
    58   28   97 1    
    59   28   98 1    
    60   29   30 am   BACKBONE|DICT|INTERRES
    61   29   99 1    
    62   30   31 2    
    63   30   32 1    
    64   32   33 1    
    65   32   34 1    
    66   32  100 1    
    67   33  101 1    
    68   33  102 1    
    69   33  103 1    
    70   34   35 am   BACKBONE|DICT|INTERRES
    71   34  104 1    
    72   35   36 2    
    73   37   38 2    
    74   37   39 am   BACKBONE|DICT|INTERRES
    75   39   40 1    
    76   39  105 1    
    77   40   41 1    
    78   40   42 1    
    79   40  106 1    
    80   41  107 1    
    81   41  108 1    
    82   41  109 1    
    83   42   43 2    
    84   42   44 am   BACKBONE|DICT|INTERRES
    85   44   45 1    
    86   44  110 1    
    87   45   46 1    
    88   45   47 1    
    89   45  111 1    
    90   46  112 1    
    91   46  113 1    
    92   46  114 1    
    93   47   48 2    
    94   47   49 am   BACKBONE|DICT|INTERRES
    95   49   50 1    
    96   49  115 1    
    97   50   51 1    
    98   50   52 1    
    99   50  116 1    
   100   51  117 1    
   101   51  118 1    
   102   51  119 1    
   103   52   53 2    
   104   52   54 am   BACKBONE|DICT|INTERRES
   105   54   55 1    
   106   54  120 1    
   107   55   56 1    
   108   55   57 1    
   109   55  121 1    
   110   56  122 1    
   111   56  123 1    
   112   56  124 1    
   113   57   58 2    
   114   57   59 am   BACKBONE|DICT|INTERRES
   115   59   60 1    
   116   59  125 1    
   117   60   61 1    
   118   60   62 1    
   119   60  126 1    
   120   61  127 1    
   121   61  128 1    
   122   61  129 1    
   123   62   63 2    
   124   62   64 am   BACKBONE|DICT|INTERRES
   125   64   65 1    
   126   64  130 1    
   127   65   66 1    
   128   65   69 1    
   129   65  131 1    
   130   66   67 am   BACKBONE|DICT|INTERRES
   131   66   68 2    
   132   67  132 1    
   133   67  133 1    
   134   69   70 1    
   135   69  134 1    
   136   69  135 1    
   137   70   71 1    
   138   71  136 1    
   139   71  137 1    
@<TRIPOS>SUBSTRUCTURE
     1 UNK         1 GROUP             0       ****    0 ROOT    
