@<TRIPOS>MOLECULE
3R136
137   139    1
SMALL
USER_CHARGES


@<TRIPOS>ATOM
      1 CA         27.4130   19.1461   -3.3755 C.3       0 UNK        -0.1979 
      2 C          27.7369   20.3954   -2.5692 C.2       0 UNK         0.4864 
      3 O          27.6201   21.5061   -3.0898 O.2       0 UNK        -0.5359 
      4 N          28.1507   20.2223   -1.3070 N.am      1 UNK        -0.4318 
      5 CA         28.4364   21.3093   -0.3667 C.3       1 UNK         0.0824 
      6 C6         29.3046   20.8046    0.8156 C.3       12 UNK        -0.0944 
      7 S7         30.0852   22.1685    1.7447 S.3       12 UNK        -0.2672 
      8 C8         31.8136   22.0523    1.1955 C.3       12 UNK         0.0333 
      9 C9         32.5994   23.2858    1.6140 C.ar      12 UNK        -0.0807 
     10 C10        32.8970   23.5065    2.9631 C.ar      12 UNK        -0.0894 
     11 C11        33.6089   24.6435    3.3559 C.ar      12 UNK        -0.0804 
     12 C12        34.0356   25.5561    2.3870 C.ar      12 UNK        -0.0824 
     13 C13        33.7547   25.3413    1.0344 C.ar      12 UNK        -0.0762 
     14 C14        33.0333   24.2057    0.6537 C.ar      12 UNK        -0.0782 
     15 C15        34.2529   26.3261   -0.0158 C.3       12 UNK         0.0230 
     16 S16        32.8993   27.2522   -0.8082 S.3       12 UNK        -0.2608 
     17 C17        32.1318   28.1024    0.6126 C.3       12 UNK        -0.0989 
     18 CA         30.7054   27.5606    0.9049 C.3       5 UNK         0.0716 
     19 N          30.3347   27.6859    2.3168 N.am      5 UNK        -0.4135 
     20 C          30.1081   28.8247    2.9887 C.2       4 UNK         0.5031 
     21 O          30.2366   29.9531    2.5088 O.2       4 UNK        -0.5229 
     22 CA         29.6368   28.6618    4.4475 C.3       4 UNK         0.0329 
     23 CB         29.0532   29.9611    5.0399 C.3       4 UNK        -0.2001 
     24 N          28.6945   27.5507    4.6328 N.am      4 UNK        -0.4303 
     25 C          27.5232   27.3745    4.0031 C.2       3 UNK         0.5044 
     26 O          27.0521   28.1529    3.1710 O.2       3 UNK        -0.5152 
     27 CA         26.7522   26.0957    4.3708 C.3       3 UNK         0.0319 
     28 CB         25.5885   26.4338    5.3163 C.3       3 UNK        -0.2001 
     29 N          26.2333   25.3489    3.2181 N.am      3 UNK        -0.4354 
     30 C          26.9250   24.9819    2.1303 C.2       2 UNK         0.4964 
     31 O          28.0805   25.3415    1.8786 O.2       2 UNK        -0.5047 
     32 CA         26.2047   24.0428    1.1553 C.3       2 UNK         0.0288 
     33 CB         25.3666   24.8155    0.1242 C.3       2 UNK        -0.2113 
     34 N          27.2261   23.2568    0.4756 N.am      2 UNK        -0.4145 
     35 C          27.1297   21.9712    0.1267 C.2       1 UNK         0.5006 
     36 O          26.0938   21.3062    0.2249 O.2       1 UNK        -0.5103 
     37 C          29.6083   28.1540   -0.0085 C.2       5 UNK         0.5055 
     38 O          29.8890   29.0166   -0.8411 O.2       5 UNK        -0.5220 
     39 N          28.3609   27.7105    0.2107 N.am      6 UNK        -0.4450 
     40 CA         27.1286   28.2005   -0.4216 C.3       6 UNK         0.0367 
     41 CB         27.0933   27.8231   -1.9184 C.3       6 UNK        -0.1929 
     42 C          26.8991   29.7054   -0.1735 C.2       6 UNK         0.5070 
     43 O          26.6177   30.4546   -1.1105 O.2       6 UNK        -0.5237 
     44 N          27.0400   30.1112    1.0965 N.am      7 UNK        -0.4739 
     45 CA         26.9007   31.4745    1.6237 C.3       7 UNK         0.0276 
     46 CB         25.4433   31.9654    1.4900 C.3       7 UNK        -0.1927 
     47 C          27.9227   32.4916    1.0709 C.2       7 UNK         0.5013 
     48 O          27.6650   33.6954    1.1301 O.2       7 UNK        -0.5193 
     49 N          29.0734   32.0144    0.5744 N.am      8 UNK        -0.4253 
     50 CA         30.1846   32.8553    0.1127 C.3       8 UNK         0.0242 
     51 CB         31.0496   32.0624   -0.8781 C.3       8 UNK        -0.2000 
     52 C          31.0498   33.4053    1.2636 C.2       8 UNK         0.4948 
     53 O          31.7979   34.3554    1.0296 O.2       8 UNK        -0.5275 
     54 N          30.9156   32.8089    2.4586 N.am      9 UNK        -0.4246 
     55 CA         31.6422   33.0326    3.7131 C.3       9 UNK         0.0261 
     56 CB         31.9352   34.5157    4.0216 C.3       9 UNK        -0.1959 
     57 C          32.9029   32.1592    3.7562 C.2       9 UNK         0.5033 
     58 O          33.7905   32.3105    2.9141 O.2       9 UNK        -0.5390 
     59 N          32.9449   31.2589    4.7441 N.am      10 UNK        -0.4215 
     60 CA         33.9970   30.2752    4.9865 C.3       10 UNK         0.0240 
     61 CB         34.0554   29.2275    3.8461 C.3       10 UNK        -0.1982 
     62 C          33.7407   29.6703    6.3767 C.2       10 UNK         0.4970 
     63 O          33.7420   30.4084    7.3617 O.2       10 UNK        -0.4916 
     64 N          33.4908   28.3578    6.4265 N.am      11 UNK        -0.4279 
     65 CA         33.1674   27.5485    7.6133 C.3       11 UNK         0.1003 
     66 C          31.8128   27.8593    8.3217 C.2       11 UNK         0.5709 
     67 N          30.9777   28.7576    7.8164 N.am      11 UNK        -0.7358 
     68 O          31.5208   27.2812    9.3660 O.2       11 UNK        -0.4999 
     69 C69        33.3262   26.0324    7.3023 C.3       12 UNK        -0.0954 
     70 S70        32.5096   25.5110    5.7476 S.3       12 UNK        -0.2268 
     71 C71        33.9414   24.8745    4.8215 C.3       12 UNK         0.0203 
     72 H72        26.3714   19.1661   -3.6951 H         1 UNK         0.0888 
     73 H73        28.0419   19.0994   -4.2642 H         1 UNK         0.0888 
     74 H74        27.5732   18.2353   -2.7987 H         1 UNK         0.0888 
     75 H75        28.1931   19.2885   -0.9245 H         1 UNK         0.3017 
     76 H76        29.0104   22.0616   -0.9134 H         1 UNK         0.0873 
     77 H77        30.0919   20.1439    0.4483 H         1 UNK         0.0745 
     78 H78        28.7127   20.2012    1.5070 H         1 UNK         0.0745 
     79 H79        31.8411   21.9300    0.1114 H         1 UNK         0.0705 
     80 H80        32.2724   21.1597    1.6233 H         1 UNK         0.0705 
     81 H81        32.5638   22.7976    3.7090 H         1 UNK         0.1334 
     82 H82        34.5979   26.4299    2.6846 H         1 UNK         0.1417 
     83 H83        32.8118   24.0422   -0.3924 H         1 UNK         0.1562 
     84 H84        34.8031   25.7812   -0.7843 H         1 UNK         0.0748 
     85 H85        34.9601   27.0348    0.4184 H         1 UNK         0.0748 
     86 H86        32.1307   29.1791    0.4431 H         1 UNK         0.0940 
     87 H87        32.7698   27.9584    1.4830 H         1 UNK         0.0940 
     88 H88        30.7078   26.4853    0.7162 H         1 UNK         0.0703 
     89 H89        30.1530   26.8123    2.7915 H         1 UNK         0.3081 
     90 H90        30.5298   28.4040    5.0175 H         1 UNK         0.0719 
     91 H91        28.7541   29.8242    6.0788 H         1 UNK         0.0809 
     92 H92        28.1774   30.2984    4.4868 H         1 UNK         0.0809 
     93 H93        29.7831   30.7681    5.0180 H         1 UNK         0.0809 
     94 H94        28.9843   26.8448    5.2961 H         1 UNK         0.2990 
     95 H95        27.4326   25.4223    4.8960 H         1 UNK         0.0690 
     96 H96        25.0850   25.5333    5.6687 H         1 UNK         0.0788 
     97 H97        24.8459   27.0661    4.8275 H         1 UNK         0.0788 
     98 H98        25.9425   26.9703    6.1979 H         1 UNK         0.0788 
     99 H99        25.2779   25.0329    3.2997 H         1 UNK         0.2993 
    100 H100       25.5551   23.3815    1.7334 H         1 UNK         0.0949 
    101 H101       25.9958   25.4049   -0.5408 H         1 UNK         0.0767 
    102 H102       24.7830   24.1335   -0.4945 H         1 UNK         0.0767 
    103 H103       24.6652   25.4951    0.6100 H         1 UNK         0.0767 
    104 H104       28.1357   23.7036    0.4612 H         1 UNK         0.3013 
    105 H105       28.2355   26.9994    0.9275 H         1 UNK         0.3121 
    106 H106       26.3042   27.6873    0.0744 H         1 UNK         0.0774 
    107 H107       26.1216   28.0565   -2.3551 H         1 UNK         0.0815 
    108 H108       27.8447   28.3683   -2.4906 H         1 UNK         0.0815 
    109 H109       27.2704   26.7586   -2.0682 H         1 UNK         0.0815 
    110 H110       27.2270   29.3960    1.7988 H         1 UNK         0.2987 
    111 H111       27.1173   31.3992    2.6893 H         1 UNK         0.0949 
    112 H112       25.1671   32.1350    0.4490 H         1 UNK         0.0806 
    113 H113       24.7422   31.2448    1.9110 H         1 UNK         0.0806 
    114 H114       25.2946   32.9059    2.0219 H         1 UNK         0.0806 
    115 H115       29.2244   31.0125    0.5745 H         1 UNK         0.3010 
    116 H116       29.7696   33.7134   -0.4204 H         1 UNK         0.0829 
    117 H117       30.4560   31.6799   -1.7087 H         1 UNK         0.0813 
    118 H118       31.8352   32.6901   -1.3006 H         1 UNK         0.0813 
    119 H119       31.5355   31.2160   -0.3949 H         1 UNK         0.0813 
    120 H120       30.3541   31.9617    2.4590 H         1 UNK         0.3038 
    121 H121       30.9607   32.6905    4.4919 H         1 UNK         0.0769 
    122 H122       32.7068   34.9253    3.3691 H         1 UNK         0.0811 
    123 H123       31.0411   35.1301    3.9166 H         1 UNK         0.0811 
    124 H124       32.2923   34.6318    5.0454 H         1 UNK         0.0811 
    125 H125       32.2160   31.2771    5.4435 H         1 UNK         0.3204 
    126 H126       34.9548   30.7973    5.0335 H         1 UNK         0.0748 
    127 H127       34.8380   28.4901    4.0287 H         1 UNK         0.0771 
    128 H128       33.1095   28.6986    3.7289 H         1 UNK         0.0771 
    129 H129       34.2886   29.6919    2.8880 H         1 UNK         0.0771 
    130 H130       33.4856   27.8420    5.5596 H         1 UNK         0.2980 
    131 H131       33.9226   27.7973    8.3610 H         1 UNK         0.0545 
    132 H132       31.2272   29.2804    6.9975 H         1 UNK         0.3459 
    133 H133       30.1159   28.9487    8.3020 H         1 UNK         0.3459 
    134 H134       34.3898   25.7978    7.2413 H         1 UNK         0.0616 
    135 H135       32.9502   25.4120    8.1179 H         1 UNK         0.0616 
    136 H136       34.2770   23.9414    5.2765 H         1 UNK         0.0634 
    137 H137       34.7723   25.5766    4.9084 H         1 UNK         0.0634 
@<TRIPOS>BOND
     1    1    2 1    
     2    1   72 1    
     3    1   73 1    
     4    1   74 1    
     5    2    3 2    
     6    2    4 am   BACKBONE|DICT|INTERRES
     7    4    5 1    
     8    4   75 1    
     9    5    6 1    
    10    5   35 1    
    11    5   76 1    
    12    6    7 1    
    13    6   77 1    
    14    6   78 1    
    15    7    8 1    
    16    8    9 1    
    17    8   79 1    
    18    8   80 1    
    19    9   10 ar   
    20    9   14 ar   
    21   10   11 ar   
    22   10   81 1    
    23   11   12 ar   
    24   11   71 1    
    25   12   13 ar   
    26   12   82 1    
    27   13   14 ar   
    28   13   15 1    
    29   14   83 1    
    30   15   16 1    
    31   15   84 1    
    32   15   85 1    
    33   16   17 1    
    34   17   18 1    
    35   17   86 1    
    36   17   87 1    
    37   18   19 1    
    38   18   37 1    
    39   18   88 1    
    40   19   20 am   BACKBONE|DICT|INTERRES
    41   19   89 1    
    42   20   21 2    
    43   20   22 1    
    44   22   23 1    
    45   22   24 1    
    46   22   90 1    
    47   23   91 1    
    48   23   92 1    
    49   23   93 1    
    50   24   25 am   BACKBONE|DICT|INTERRES
    51   24   94 1    
    52   25   26 2    
    53   25   27 1    
    54   27   28 1    
    55   27   29 1    
    56   27   95 1    
    57   28   96 1    
    58   28   97 1    
    59   28   98 1    
    60   29   30 am   BACKBONE|DICT|INTERRES
    61   29   99 1    
    62   30   31 2    
    63   30   32 1    
    64   32   33 1    
    65   32   34 1    
    66   32  100 1    
    67   33  101 1    
    68   33  102 1    
    69   33  103 1    
    70   34   35 am   BACKBONE|DICT|INTERRES
    71   34  104 1    
    72   35   36 2    
    73   37   38 2    
    74   37   39 am   BACKBONE|DICT|INTERRES
    75   39   40 1    
    76   39  105 1    
    77   40   41 1    
    78   40   42 1    
    79   40  106 1    
    80   41  107 1    
    81   41  108 1    
    82   41  109 1    
    83   42   43 2    
    84   42   44 am   BACKBONE|DICT|INTERRES
    85   44   45 1    
    86   44  110 1    
    87   45   46 1    
    88   45   47 1    
    89   45  111 1    
    90   46  112 1    
    91   46  113 1    
    92   46  114 1    
    93   47   48 2    
    94   47   49 am   BACKBONE|DICT|INTERRES
    95   49   50 1    
    96   49  115 1    
    97   50   51 1    
    98   50   52 1    
    99   50  116 1    
   100   51  117 1    
   101   51  118 1    
   102   51  119 1    
   103   52   53 2    
   104   52   54 am   BACKBONE|DICT|INTERRES
   105   54   55 1    
   106   54  120 1    
   107   55   56 1    
   108   55   57 1    
   109   55  121 1    
   110   56  122 1    
   111   56  123 1    
   112   56  124 1    
   113   57   58 2    
   114   57   59 am   BACKBONE|DICT|INTERRES
   115   59   60 1    
   116   59  125 1    
   117   60   61 1    
   118   60   62 1    
   119   60  126 1    
   120   61  127 1    
   121   61  128 1    
   122   61  129 1    
   123   62   63 2    
   124   62   64 am   BACKBONE|DICT|INTERRES
   125   64   65 1    
   126   64  130 1    
   127   65   66 1    
   128   65   69 1    
   129   65  131 1    
   130   66   67 am   BACKBONE|DICT|INTERRES
   131   66   68 2    
   132   67  132 1    
   133   67  133 1    
   134   69   70 1    
   135   69  134 1    
   136   69  135 1    
   137   70   71 1    
   138   71  136 1    
   139   71  137 1    
@<TRIPOS>SUBSTRUCTURE
     1 UNK         1 GROUP             0       ****    0 ROOT    
