@<TRIPOS>MOLECULE
3R136
137   139    1
SMALL
USER_CHARGES


@<TRIPOS>ATOM
      1 CA         31.0469   30.2433   -0.0462 C.3       0 UNK        -0.1979 
      2 C          30.8769   28.7828   -0.4217 C.2       0 UNK         0.4864 
      3 O          31.2272   28.3952   -1.5376 O.2       0 UNK        -0.5359 
      4 N          30.3004   27.9824    0.4863 N.am      1 UNK        -0.4318 
      5 CA         29.8341   26.6071    0.2805 C.3       1 UNK         0.0824 
      6 C6         30.9508   25.6214   -0.1591 C.3       12 UNK        -0.0944 
      7 S7         30.5164   23.8781    0.1587 S.3       12 UNK        -0.2672 
      8 C8         31.5081   23.4986    1.6402 C.3       12 UNK         0.0333 
      9 C9         30.8918   24.0839    2.9030 C.ar      12 UNK        -0.0807 
     10 C10        31.2407   25.3690    3.3291 C.ar      12 UNK        -0.0894 
     11 C11        30.6598   25.9170    4.4755 C.ar      12 UNK        -0.0804 
     12 C12        29.7462   25.1609    5.2147 C.ar      12 UNK        -0.0824 
     13 C13        29.3997   23.8688    4.8085 C.ar      12 UNK        -0.0762 
     14 C14        29.9727   23.3373    3.6486 C.ar      12 UNK        -0.0782 
     15 C15        28.3970   23.0554    5.6169 C.3       12 UNK         0.0230 
     16 S16        26.7481   23.0172    4.8397 S.3       12 UNK        -0.2608 
     17 C17        26.3069   24.7875    4.8050 C.3       12 UNK        -0.0989 
     18 CA         26.6225   25.4727    3.4432 C.3       5 UNK         0.0716 
     19 N          25.7517   25.0212    2.3584 N.am      5 UNK        -0.4135 
     20 C          26.0564   24.0634    1.4752 C.2       4 UNK         0.5031 
     21 O          27.0829   23.3833    1.5224 O.2       4 UNK        -0.5229 
     22 CA         25.0843   23.8385    0.3075 C.3       4 UNK         0.0329 
     23 CB         23.9222   24.8511    0.2248 C.3       4 UNK        -0.2001 
     24 N          25.8817   23.9193   -0.9085 N.am      4 UNK        -0.4303 
     25 C          25.8120   23.1059   -1.9668 C.2       3 UNK         0.5044 
     26 O          24.9836   22.1999   -2.0767 O.2       3 UNK        -0.5152 
     27 CA         26.8626   23.3213   -3.0803 C.3       3 UNK         0.0319 
     28 CB         26.3122   23.0000   -4.4866 C.3       3 UNK        -0.2001 
     29 N          27.5029   24.6459   -3.0488 N.am      3 UNK        -0.4354 
     30 C          26.9116   25.8389   -3.2238 C.2       2 UNK         0.4964 
     31 O          25.7263   25.9797   -3.5293 O.2       2 UNK        -0.5047 
     32 CA         27.7949   27.0815   -2.9885 C.3       2 UNK         0.0288 
     33 CB         26.9634   28.3538   -2.7183 C.3       2 UNK        -0.2113 
     34 N          28.8027   26.9057   -1.9323 N.am      2 UNK        -0.4145 
     35 C          28.5985   26.5939   -0.6425 C.2       1 UNK         0.5006 
     36 O          27.4912   26.3601   -0.1570 O.2       1 UNK        -0.5103 
     37 C          26.5529   27.0092    3.5198 C.2       5 UNK         0.5055 
     38 O          26.2366   27.5542    4.5794 O.2       5 UNK        -0.5220 
     39 N          26.8200   27.6952    2.3962 N.am      6 UNK        -0.4450 
     40 CA         26.9254   29.1589    2.3495 C.3       6 UNK         0.0367 
     41 CB         26.9667   29.6442    0.8922 C.3       6 UNK        -0.1929 
     42 C          28.1609   29.6381    3.1323 C.2       6 UNK         0.5070 
     43 O          29.2709   29.1840    2.8439 O.2       6 UNK        -0.5237 
     44 N          27.9376   30.5134    4.1196 N.am      7 UNK        -0.4739 
     45 CA         28.9177   30.9524    5.1154 C.3       7 UNK         0.0276 
     46 CB         28.1618   31.4819    6.3484 C.3       7 UNK        -0.1927 
     47 C          29.9315   31.9747    4.5677 C.2       7 UNK         0.5013 
     48 O          29.8674   33.1548    4.9177 O.2       7 UNK        -0.5193 
     49 N          30.8589   31.4985    3.7341 N.am      8 UNK        -0.4253 
     50 CA         32.0193   32.2253    3.2229 C.3       8 UNK         0.0242 
     51 CB         31.6001   33.2192    2.1171 C.3       8 UNK        -0.2000 
     52 C          33.0647   31.2022    2.7513 C.2       8 UNK         0.4948 
     53 O          32.8785   30.0004    2.9698 O.2       8 UNK        -0.5275 
     54 N          34.1450   31.6884    2.1209 N.am      9 UNK        -0.4246 
     55 CA         35.2831   30.9221    1.5939 C.3       9 UNK         0.0261 
     56 CB         34.8672   30.0852    0.3621 C.3       9 UNK        -0.1959 
     57 C          35.9590   30.1003    2.7046 C.2       9 UNK         0.5033 
     58 O          36.6440   30.6858    3.5448 O.2       9 UNK        -0.5390 
     59 N          35.7068   28.7841    2.7314 N.am      10 UNK        -0.4215 
     60 CA         36.1356   27.8539    3.7807 C.3       10 UNK         0.0240 
     61 CB         35.6841   26.4318    3.4076 C.3       10 UNK        -0.1982 
     62 C          35.6235   28.2237    5.1862 C.2       10 UNK         0.4970 
     63 O          36.3069   27.9266    6.1669 O.2       10 UNK        -0.4916 
     64 N          34.4561   28.8760    5.2529 N.am      11 UNK        -0.4279 
     65 CA         33.8642   29.4191    6.4839 C.3       11 UNK         0.1003 
     66 C          34.2070   30.9196    6.7221 C.2       11 UNK         0.5709 
     67 N          35.0497   31.5588    5.9175 N.am      11 UNK        -0.7358 
     68 O          33.7083   31.5200    7.6708 O.2       11 UNK        -0.4999 
     69 C69        32.3363   29.1616    6.5403 C.3       12 UNK        -0.0954 
     70 S70        31.9312   27.3853    6.4487 S.3       12 UNK        -0.2268 
     71 C71        30.9896   27.3383    4.8967 C.3       12 UNK         0.0203 
     72 H72        30.7513   30.4225    0.9857 H         1 UNK         0.0888 
     73 H73        32.0825   30.5530   -0.1683 H         1 UNK         0.0888 
     74 H74        30.4273   30.8679   -0.6889 H         1 UNK         0.0888 
     75 H75        30.0244   28.3893    1.3804 H         1 UNK         0.3017 
     76 H76        29.4840   26.2876    1.2636 H         1 UNK         0.0873 
     77 H77        31.1904   25.7287   -1.2179 H         1 UNK         0.0745 
     78 H78        31.8774   25.8538    0.3666 H         1 UNK         0.0745 
     79 H79        31.5829   22.4146    1.7382 H         1 UNK         0.0705 
     80 H80        32.5298   23.8583    1.5088 H         1 UNK         0.0705 
     81 H81        31.9488   25.9520    2.7570 H         1 UNK         0.1334 
     82 H82        29.3002   25.5865    6.1033 H         1 UNK         0.1417 
     83 H83        29.6894   22.3470    3.3182 H         1 UNK         0.1562 
     84 H84        28.3080   23.4489    6.6307 H         1 UNK         0.0748 
     85 H85        28.7609   22.0322    5.7203 H         1 UNK         0.0748 
     86 H86        26.8324   25.2801    5.6249 H         1 UNK         0.0940 
     87 H87        25.2449   24.8828    5.0377 H         1 UNK         0.0940 
     88 H88        27.6585   25.2550    3.1776 H         1 UNK         0.0703 
     89 H89        24.9003   25.5487    2.2284 H         1 UNK         0.3081 
     90 H90        24.6736   22.8335    0.4238 H         1 UNK         0.0719 
     91 H91        24.2816   25.8762    0.1200 H         1 UNK         0.0809 
     92 H92        23.2872   24.6408   -0.6362 H         1 UNK         0.0809 
     93 H93        23.2834   24.8001    1.1074 H         1 UNK         0.0809 
     94 H94        26.6118   24.6234   -0.8820 H         1 UNK         0.2990 
     95 H95        27.6585   22.6048   -2.8721 H         1 UNK         0.0690 
     96 H96        27.0714   23.1496   -5.2542 H         1 UNK         0.0788 
     97 H97        25.4521   23.6210   -4.7382 H         1 UNK         0.0788 
     98 H98        25.9891   21.9603   -4.5520 H         1 UNK         0.0788 
     99 H99        28.4818   24.6464   -2.7966 H         1 UNK         0.2993 
    100 H100       28.3473   27.2382   -3.9162 H         1 UNK         0.0949 
    101 H101       26.3152   28.2320   -1.8501 H         1 UNK         0.0767 
    102 H102       27.6036   29.2183   -2.5417 H         1 UNK         0.0767 
    103 H103       26.3245   28.5932   -3.5692 H         1 UNK         0.0767 
    104 H104       29.7519   27.1702   -2.1812 H         1 UNK         0.3013 
    105 H105       27.0468   27.1873    1.5452 H         1 UNK         0.3121 
    106 H106       26.0275   29.5742    2.8124 H         1 UNK         0.0774 
    107 H107       27.8395   29.2729    0.3586 H         1 UNK         0.0815 
    108 H108       27.0008   30.7334    0.8468 H         1 UNK         0.0815 
    109 H109       26.0791   29.3257    0.3458 H         1 UNK         0.0815 
    110 H110       26.9941   30.8467    4.2569 H         1 UNK         0.2987 
    111 H111       29.4861   30.0809    5.4421 H         1 UNK         0.0949 
    112 H112       27.5339   32.3393    6.1025 H         1 UNK         0.0806 
    113 H113       27.5240   30.7120    6.7834 H         1 UNK         0.0806 
    114 H114       28.8577   31.7996    7.1263 H         1 UNK         0.0806 
    115 H115       30.8331   30.5146    3.4796 H         1 UNK         0.3010 
    116 H116       32.4683   32.7797    4.0498 H         1 UNK         0.0829 
    117 H117       30.8691   33.9379    2.4873 H         1 UNK         0.0813 
    118 H118       32.4481   33.8000    1.7541 H         1 UNK         0.0813 
    119 H119       31.1566   32.7172    1.2591 H         1 UNK         0.0813 
    120 H120       34.2258   32.6913    2.0277 H         1 UNK         0.3038 
    121 H121       36.0241   31.6502    1.2599 H         1 UNK         0.0769 
    122 H122       34.0724   29.3730    0.5856 H         1 UNK         0.0811 
    123 H123       35.7138   29.5230   -0.0346 H         1 UNK         0.0811 
    124 H124       34.5140   30.7302   -0.4424 H         1 UNK         0.0811 
    125 H125       35.0936   28.4123    2.0209 H         1 UNK         0.3204 
    126 H126       37.2268   27.8747    3.8130 H         1 UNK         0.0748 
    127 H127       36.0158   25.7090    4.1544 H         1 UNK         0.0771 
    128 H128       34.5975   26.3570    3.3436 H         1 UNK         0.0771 
    129 H129       36.1011   26.1194    2.4499 H         1 UNK         0.0771 
    130 H130       33.9650   29.1016    4.3935 H         1 UNK         0.2980 
    131 H131       34.2981   28.8979    7.3389 H         1 UNK         0.0545 
    132 H132       35.5226   31.0848    5.1563 H         1 UNK         0.3459 
    133 H133       35.2620   32.5247    6.1085 H         1 UNK         0.3459 
    134 H134       31.8373   29.6998    5.7347 H         1 UNK         0.0616 
    135 H135       31.9128   29.5426    7.4712 H         1 UNK         0.0616 
    136 H136       31.5493   27.8529    4.1139 H         1 UNK         0.0634 
    137 H137       30.0584   27.8869    5.0319 H         1 UNK         0.0634 
@<TRIPOS>BOND
     1    1    2 1    
     2    1   72 1    
     3    1   73 1    
     4    1   74 1    
     5    2    3 2    
     6    2    4 am   BACKBONE|DICT|INTERRES
     7    4    5 1    
     8    4   75 1    
     9    5    6 1    
    10    5   35 1    
    11    5   76 1    
    12    6    7 1    
    13    6   77 1    
    14    6   78 1    
    15    7    8 1    
    16    8    9 1    
    17    8   79 1    
    18    8   80 1    
    19    9   10 ar   
    20    9   14 ar   
    21   10   11 ar   
    22   10   81 1    
    23   11   12 ar   
    24   11   71 1    
    25   12   13 ar   
    26   12   82 1    
    27   13   14 ar   
    28   13   15 1    
    29   14   83 1    
    30   15   16 1    
    31   15   84 1    
    32   15   85 1    
    33   16   17 1    
    34   17   18 1    
    35   17   86 1    
    36   17   87 1    
    37   18   19 1    
    38   18   37 1    
    39   18   88 1    
    40   19   20 am   BACKBONE|DICT|INTERRES
    41   19   89 1    
    42   20   21 2    
    43   20   22 1    
    44   22   23 1    
    45   22   24 1    
    46   22   90 1    
    47   23   91 1    
    48   23   92 1    
    49   23   93 1    
    50   24   25 am   BACKBONE|DICT|INTERRES
    51   24   94 1    
    52   25   26 2    
    53   25   27 1    
    54   27   28 1    
    55   27   29 1    
    56   27   95 1    
    57   28   96 1    
    58   28   97 1    
    59   28   98 1    
    60   29   30 am   BACKBONE|DICT|INTERRES
    61   29   99 1    
    62   30   31 2    
    63   30   32 1    
    64   32   33 1    
    65   32   34 1    
    66   32  100 1    
    67   33  101 1    
    68   33  102 1    
    69   33  103 1    
    70   34   35 am   BACKBONE|DICT|INTERRES
    71   34  104 1    
    72   35   36 2    
    73   37   38 2    
    74   37   39 am   BACKBONE|DICT|INTERRES
    75   39   40 1    
    76   39  105 1    
    77   40   41 1    
    78   40   42 1    
    79   40  106 1    
    80   41  107 1    
    81   41  108 1    
    82   41  109 1    
    83   42   43 2    
    84   42   44 am   BACKBONE|DICT|INTERRES
    85   44   45 1    
    86   44  110 1    
    87   45   46 1    
    88   45   47 1    
    89   45  111 1    
    90   46  112 1    
    91   46  113 1    
    92   46  114 1    
    93   47   48 2    
    94   47   49 am   BACKBONE|DICT|INTERRES
    95   49   50 1    
    96   49  115 1    
    97   50   51 1    
    98   50   52 1    
    99   50  116 1    
   100   51  117 1    
   101   51  118 1    
   102   51  119 1    
   103   52   53 2    
   104   52   54 am   BACKBONE|DICT|INTERRES
   105   54   55 1    
   106   54  120 1    
   107   55   56 1    
   108   55   57 1    
   109   55  121 1    
   110   56  122 1    
   111   56  123 1    
   112   56  124 1    
   113   57   58 2    
   114   57   59 am   BACKBONE|DICT|INTERRES
   115   59   60 1    
   116   59  125 1    
   117   60   61 1    
   118   60   62 1    
   119   60  126 1    
   120   61  127 1    
   121   61  128 1    
   122   61  129 1    
   123   62   63 2    
   124   62   64 am   BACKBONE|DICT|INTERRES
   125   64   65 1    
   126   64  130 1    
   127   65   66 1    
   128   65   69 1    
   129   65  131 1    
   130   66   67 am   BACKBONE|DICT|INTERRES
   131   66   68 2    
   132   67  132 1    
   133   67  133 1    
   134   69   70 1    
   135   69  134 1    
   136   69  135 1    
   137   70   71 1    
   138   71  136 1    
   139   71  137 1    
@<TRIPOS>SUBSTRUCTURE
     1 UNK         1 GROUP             0       ****    0 ROOT    
