@<TRIPOS>MOLECULE
3R136
137   139    1
SMALL
USER_CHARGES


@<TRIPOS>ATOM
      1 CA         31.7652   25.6595   -3.1954 C.3       0 UNK        -0.1979 
      2 C          31.4081   26.5757   -2.0281 C.2       0 UNK         0.4864 
      3 O          31.7745   27.7477   -2.0636 O.2       0 UNK        -0.5359 
      4 N          30.6957   26.1251   -0.9820 N.am      1 UNK        -0.4318 
      5 CA         30.1442   24.7846   -0.7018 C.3       1 UNK         0.0824 
      6 C6         31.1654   23.6139   -0.7637 C.3       12 UNK        -0.0944 
      7 S7         32.6986   23.9216    0.1770 S.3       12 UNK        -0.2672 
      8 C8         32.6150   22.6407    1.4654 C.3       12 UNK         0.0333 
      9 C9         31.8286   23.1086    2.6801 C.ar      12 UNK        -0.0807 
     10 C10        32.4914   23.7820    3.7103 C.ar      12 UNK        -0.0894 
     11 C11        31.8039   24.1680    4.8626 C.ar      12 UNK        -0.0804 
     12 C12        30.4408   23.8849    4.9772 C.ar      12 UNK        -0.0824 
     13 C13        29.7588   23.2317    3.9449 C.ar      12 UNK        -0.0762 
     14 C14        30.4593   22.8422    2.7975 C.ar      12 UNK        -0.0782 
     15 C15        28.2749   22.9148    4.0936 C.3       12 UNK         0.0230 
     16 S16        27.2020   24.0538    3.1557 S.3       12 UNK        -0.2608 
     17 C17        27.6223   25.6794    3.8741 C.3       12 UNK        -0.0989 
     18 CA         28.2733   26.5787    2.7897 C.3       5 UNK         0.0716 
     19 N          27.2973   27.0446    1.7966 N.am      5 UNK        -0.4135 
     20 C          26.3697   28.0007    1.9684 C.2       4 UNK         0.5031 
     21 O          26.2428   28.6665    2.9977 O.2       4 UNK        -0.5229 
     22 CA         25.4166   28.2602    0.7884 C.3       4 UNK         0.0329 
     23 CB         25.9867   29.3543   -0.1293 C.3       4 UNK        -0.2001 
     24 N          25.1500   27.0690   -0.0197 N.am      4 UNK        -0.4303 
     25 C          24.5318   25.9517    0.3832 C.2       3 UNK         0.5044 
     26 O          24.0369   25.8131    1.5016 O.2       3 UNK        -0.5152 
     27 CA         24.4730   24.7754   -0.6138 C.3       3 UNK         0.0319 
     28 CB         23.1292   24.7578   -1.3682 C.3       3 UNK        -0.2001 
     29 N          25.6137   24.6859   -1.5439 N.am      3 UNK        -0.4354 
     30 C          25.9676   25.5208   -2.5322 C.2       2 UNK         0.4964 
     31 O          25.3591   26.5562   -2.8053 O.2       2 UNK        -0.5047 
     32 CA         27.2699   25.1802   -3.2754 C.3       2 UNK         0.0288 
     33 CB         27.4750   26.0407   -4.5368 C.3       2 UNK        -0.2113 
     34 N          28.4282   25.3544   -2.3967 N.am      2 UNK        -0.4145 
     35 C          28.8650   24.4538   -1.5047 C.2       1 UNK         0.5006 
     36 O          28.2804   23.3899   -1.2930 O.2       1 UNK        -0.5103 
     37 C          29.1058   27.7612    3.3204 C.2       5 UNK         0.5055 
     38 O          29.7841   28.3975    2.5125 O.2       5 UNK        -0.5220 
     39 N          29.0241   28.0741    4.6213 N.am      6 UNK        -0.4450 
     40 CA         29.7716   29.1539    5.2758 C.3       6 UNK         0.0367 
     41 CB         29.5142   29.1113    6.7896 C.3       6 UNK        -0.1929 
     42 C          29.5074   30.5628    4.7174 C.2       6 UNK         0.5070 
     43 O          30.3733   31.4246    4.8564 O.2       6 UNK        -0.5237 
     44 N          28.3611   30.7775    4.0563 N.am      7 UNK        -0.4739 
     45 CA         28.0570   32.0301    3.3576 C.3       7 UNK         0.0276 
     46 CB         26.5456   32.1146    3.0914 C.3       7 UNK        -0.1927 
     47 C          28.8668   32.2260    2.0585 C.2       7 UNK         0.5013 
     48 O          28.9188   33.3527    1.5634 O.2       7 UNK        -0.5193 
     49 N          29.4797   31.1538    1.5343 N.am      8 UNK        -0.4253 
     50 CA         30.3250   31.1713    0.3380 C.3       8 UNK         0.0242 
     51 CB         29.7076   30.2558   -0.7325 C.3       8 UNK        -0.2000 
     52 C          31.7677   30.7432    0.6515 C.2       8 UNK         0.4948 
     53 O          32.7035   31.4037    0.1998 O.2       8 UNK        -0.5275 
     54 N          31.9287   29.6534    1.4136 N.am      9 UNK        -0.4246 
     55 CA         33.2140   29.0222    1.7237 C.3       9 UNK         0.0261 
     56 CB         32.9818   27.5162    1.9466 C.3       9 UNK        -0.1959 
     57 C          33.9347   29.6319    2.9382 C.2       9 UNK         0.5033 
     58 O          35.0791   29.2520    3.1931 O.2       9 UNK        -0.5390 
     59 N          33.2652   30.5196    3.6905 N.am      10 UNK        -0.4215 
     60 CA         33.6907   31.1726    4.9406 C.3       10 UNK         0.0240 
     61 CB         34.9815   31.9956    4.7553 C.3       10 UNK        -0.1982 
     62 C          33.8006   30.2156    6.1428 C.2       10 UNK         0.4970 
     63 O          33.2819   30.5375    7.2119 O.2       10 UNK        -0.4916 
     64 N          34.4567   29.0660    5.9435 N.am      11 UNK        -0.4279 
     65 CA         34.6288   27.9607    6.9035 C.3       11 UNK         0.1003 
     66 C          35.5041   28.3039    8.1482 C.2       11 UNK         0.5709 
     67 N          36.2951   29.3704    8.1257 N.am      11 UNK        -0.7358 
     68 O          35.4984   27.5760    9.1386 O.2       11 UNK        -0.4999 
     69 C69        33.2833   27.2733    7.2797 C.3       12 UNK        -0.0954 
     70 S70        32.3689   26.6789    5.8172 S.3       12 UNK        -0.2268 
     71 C71        32.5340   24.8811    5.9886 C.3       12 UNK         0.0203 
     72 H72        30.9625   24.9719   -3.4527 H         1 UNK         0.0888 
     73 H73        31.9783   26.2517   -4.0851 H         1 UNK         0.0888 
     74 H74        32.6601   25.0847   -2.9591 H         1 UNK         0.0888 
     75 H75        30.5168   26.7941   -0.2472 H         1 UNK         0.3017 
     76 H76        29.8099   24.8379    0.3347 H         1 UNK         0.0873 
     77 H77        31.4428   23.3775   -1.7904 H         1 UNK         0.0745 
     78 H78        30.6994   22.7024   -0.3862 H         1 UNK         0.0745 
     79 H79        33.6339   22.3922    1.7667 H         1 UNK         0.0705 
     80 H80        32.1949   21.7179    1.0628 H         1 UNK         0.0705 
     81 H81        33.5478   23.9960    3.6194 H         1 UNK         0.1334 
     82 H82        29.9124   24.1766    5.8746 H         1 UNK         0.1417 
     83 H83        29.9400   22.3213    2.0045 H         1 UNK         0.1562 
     84 H84        27.9815   22.9357    5.1444 H         1 UNK         0.0748 
     85 H85        28.0873   21.8963    3.7505 H         1 UNK         0.0748 
     86 H86        28.2820   25.5270    4.7271 H         1 UNK         0.0940 
     87 H87        26.7139   26.1352    4.2723 H         1 UNK         0.0940 
     88 H88        28.9990   25.9695    2.2497 H         1 UNK         0.0703 
     89 H89        27.3092   26.5656    0.9104 H         1 UNK         0.3081 
     90 H90        24.4675   28.6082    1.2009 H         1 UNK         0.0719 
     91 H91        26.8987   29.0243   -0.6274 H         1 UNK         0.0809 
     92 H92        25.2697   29.6353   -0.9009 H         1 UNK         0.0809 
     93 H93        26.2302   30.2586    0.4275 H         1 UNK         0.0809 
     94 H94        25.4259   27.1032   -0.9971 H         1 UNK         0.2990 
     95 H95        24.5206   23.8665   -0.0116 H         1 UNK         0.0690 
     96 H96        23.0532   23.8898   -2.0231 H         1 UNK         0.0788 
     97 H97        22.9893   25.6516   -1.9770 H         1 UNK         0.0788 
     98 H98        22.2928   24.7104   -0.6695 H         1 UNK         0.0788 
     99 H99        26.2485   23.9136   -1.3659 H         1 UNK         0.2993 
    100 H100       27.2064   24.1362   -3.5915 H         1 UNK         0.0949 
    101 H101       26.6327   25.9350   -5.2220 H         1 UNK         0.0767 
    102 H102       27.5690   27.1006   -4.2962 H         1 UNK         0.0767 
    103 H103       28.3716   25.7400   -5.0793 H         1 UNK         0.0767 
    104 H104       28.9235   26.2306   -2.4753 H         1 UNK         0.3013 
    105 H105       28.4025   27.5399    5.2099 H         1 UNK         0.3121 
    106 H106       30.8317   28.9608    5.1070 H         1 UNK         0.0774 
    107 H107       30.0956   29.8785    7.3036 H         1 UNK         0.0815 
    108 H108       28.4634   29.2821    7.0264 H         1 UNK         0.0815 
    109 H109       29.8072   28.1513    7.2151 H         1 UNK         0.0815 
    110 H110       27.6968   30.0177    3.9515 H         1 UNK         0.2987 
    111 H111       28.3217   32.8594    4.0178 H         1 UNK         0.0949 
    112 H112       26.2879   33.0448    2.5832 H         1 UNK         0.0806 
    113 H113       26.1961   31.2946    2.4671 H         1 UNK         0.0806 
    114 H114       25.9789   32.0880    4.0222 H         1 UNK         0.0806 
    115 H115       29.3973   30.2653    2.0180 H         1 UNK         0.3010 
    116 H116       30.3771   32.1798   -0.0778 H         1 UNK         0.0829 
    117 H117       28.7368   30.6307   -1.0557 H         1 UNK         0.0813 
    118 H118       30.3440   30.2031   -1.6171 H         1 UNK         0.0813 
    119 H119       29.5718   29.2371   -0.3676 H         1 UNK         0.0813 
    120 H120       31.1026   29.1666    1.7636 H         1 UNK         0.3038 
    121 H121       33.8784   29.1363    0.8645 H         1 UNK         0.0769 
    122 H122       33.9196   26.9969    2.1488 H         1 UNK         0.0811 
    123 H123       32.5429   27.0475    1.0666 H         1 UNK         0.0811 
    124 H124       32.3200   27.3277    2.7925 H         1 UNK         0.0811 
    125 H125       32.3191   30.7364    3.4077 H         1 UNK         0.3204 
    126 H126       32.9000   31.8830    5.1835 H         1 UNK         0.0748 
    127 H127       35.2106   32.5635    5.6579 H         1 UNK         0.0771 
    128 H128       35.8466   31.3674    4.5424 H         1 UNK         0.0771 
    129 H129       34.8792   32.7117    3.9399 H         1 UNK         0.0771 
    130 H130       34.8547   28.9205    5.0190 H         1 UNK         0.2980 
    131 H131       35.2192   27.2175    6.3669 H         1 UNK         0.0545 
    132 H132       36.8666   29.5786    8.9292 H         1 UNK         0.3459 
    133 H133       36.3202   29.9693    7.3166 H         1 UNK         0.3459 
    134 H134       32.6395   27.9635    7.8267 H         1 UNK         0.0616 
    135 H135       33.4551   26.4296    7.9500 H         1 UNK         0.0616 
    136 H136       32.1301   24.5681    6.9526 H         1 UNK         0.0634 
    137 H137       33.5916   24.6129    5.9893 H         1 UNK         0.0634 
@<TRIPOS>BOND
     1    1    2 1    
     2    1   72 1    
     3    1   73 1    
     4    1   74 1    
     5    2    3 2    
     6    2    4 am   BACKBONE|DICT|INTERRES
     7    4    5 1    
     8    4   75 1    
     9    5    6 1    
    10    5   35 1    
    11    5   76 1    
    12    6    7 1    
    13    6   77 1    
    14    6   78 1    
    15    7    8 1    
    16    8    9 1    
    17    8   79 1    
    18    8   80 1    
    19    9   10 ar   
    20    9   14 ar   
    21   10   11 ar   
    22   10   81 1    
    23   11   12 ar   
    24   11   71 1    
    25   12   13 ar   
    26   12   82 1    
    27   13   14 ar   
    28   13   15 1    
    29   14   83 1    
    30   15   16 1    
    31   15   84 1    
    32   15   85 1    
    33   16   17 1    
    34   17   18 1    
    35   17   86 1    
    36   17   87 1    
    37   18   19 1    
    38   18   37 1    
    39   18   88 1    
    40   19   20 am   BACKBONE|DICT|INTERRES
    41   19   89 1    
    42   20   21 2    
    43   20   22 1    
    44   22   23 1    
    45   22   24 1    
    46   22   90 1    
    47   23   91 1    
    48   23   92 1    
    49   23   93 1    
    50   24   25 am   BACKBONE|DICT|INTERRES
    51   24   94 1    
    52   25   26 2    
    53   25   27 1    
    54   27   28 1    
    55   27   29 1    
    56   27   95 1    
    57   28   96 1    
    58   28   97 1    
    59   28   98 1    
    60   29   30 am   BACKBONE|DICT|INTERRES
    61   29   99 1    
    62   30   31 2    
    63   30   32 1    
    64   32   33 1    
    65   32   34 1    
    66   32  100 1    
    67   33  101 1    
    68   33  102 1    
    69   33  103 1    
    70   34   35 am   BACKBONE|DICT|INTERRES
    71   34  104 1    
    72   35   36 2    
    73   37   38 2    
    74   37   39 am   BACKBONE|DICT|INTERRES
    75   39   40 1    
    76   39  105 1    
    77   40   41 1    
    78   40   42 1    
    79   40  106 1    
    80   41  107 1    
    81   41  108 1    
    82   41  109 1    
    83   42   43 2    
    84   42   44 am   BACKBONE|DICT|INTERRES
    85   44   45 1    
    86   44  110 1    
    87   45   46 1    
    88   45   47 1    
    89   45  111 1    
    90   46  112 1    
    91   46  113 1    
    92   46  114 1    
    93   47   48 2    
    94   47   49 am   BACKBONE|DICT|INTERRES
    95   49   50 1    
    96   49  115 1    
    97   50   51 1    
    98   50   52 1    
    99   50  116 1    
   100   51  117 1    
   101   51  118 1    
   102   51  119 1    
   103   52   53 2    
   104   52   54 am   BACKBONE|DICT|INTERRES
   105   54   55 1    
   106   54  120 1    
   107   55   56 1    
   108   55   57 1    
   109   55  121 1    
   110   56  122 1    
   111   56  123 1    
   112   56  124 1    
   113   57   58 2    
   114   57   59 am   BACKBONE|DICT|INTERRES
   115   59   60 1    
   116   59  125 1    
   117   60   61 1    
   118   60   62 1    
   119   60  126 1    
   120   61  127 1    
   121   61  128 1    
   122   61  129 1    
   123   62   63 2    
   124   62   64 am   BACKBONE|DICT|INTERRES
   125   64   65 1    
   126   64  130 1    
   127   65   66 1    
   128   65   69 1    
   129   65  131 1    
   130   66   67 am   BACKBONE|DICT|INTERRES
   131   66   68 2    
   132   67  132 1    
   133   67  133 1    
   134   69   70 1    
   135   69  134 1    
   136   69  135 1    
   137   70   71 1    
   138   71  136 1    
   139   71  137 1    
@<TRIPOS>SUBSTRUCTURE
     1 UNK         1 GROUP             0       ****    0 ROOT    
