@<TRIPOS>MOLECULE
3R136
137   139    1
SMALL
USER_CHARGES


@<TRIPOS>ATOM
      1 CA         29.0147   17.9315    0.7462 C.3       0 UNK        -0.1979 
      2 C          28.7618   19.0883   -0.2094 C.2       0 UNK         0.4864 
      3 O          28.5723   18.8635   -1.4053 O.2       0 UNK        -0.5359 
      4 N          28.7517   20.3237    0.3099 N.am      1 UNK        -0.4318 
      5 CA         28.5586   21.5580   -0.4661 C.3       1 UNK         0.0824 
      6 C6         29.1549   22.7964    0.2512 C.3       12 UNK        -0.0944 
      7 S7         30.9551   22.6354    0.5030 S.3       12 UNK        -0.2672 
      8 C8         31.1051   22.7966    2.3099 C.3       12 UNK         0.0333 
      9 C9         30.9089   24.2354    2.7658 C.ar      12 UNK        -0.0807 
     10 C10        31.9142   25.1811    2.5420 C.ar      12 UNK        -0.0894 
     11 C11        31.7530   26.5025    2.9664 C.ar      12 UNK        -0.0804 
     12 C12        30.5791   26.8758    3.6264 C.ar      12 UNK        -0.0824 
     13 C13        29.5647   25.9411    3.8516 C.ar      12 UNK        -0.0762 
     14 C14        29.7347   24.6216    3.4203 C.ar      12 UNK        -0.0782 
     15 C15        28.2865   26.3535    4.5653 C.3       12 UNK         0.0230 
     16 S16        26.9623   26.7653    3.3867 S.3       12 UNK        -0.2608 
     17 C17        27.5387   28.3606    2.7061 C.3       12 UNK        -0.0989 
     18 CA         28.1244   28.2308    1.2748 C.3       5 UNK         0.0716 
     19 N          27.1491   27.6400    0.3551 N.am      5 UNK        -0.4135 
     20 C          27.4119   27.0066   -0.7930 C.2       4 UNK         0.5031 
     21 O          28.5459   26.9003   -1.2658 O.2       4 UNK        -0.5229 
     22 CA         26.2013   26.3737   -1.5069 C.3       4 UNK         0.0329 
     23 CB         26.5746   25.7490   -2.8636 C.3       4 UNK        -0.2001 
     24 N          25.5644   25.3622   -0.6542 N.am      4 UNK        -0.4303 
     25 C          24.7189   25.6419    0.3516 C.2       3 UNK         0.5044 
     26 O          24.3467   26.7905    0.6012 O.2       3 UNK        -0.5152 
     27 CA         24.2581   24.4972    1.2792 C.3       3 UNK         0.0319 
     28 CB         22.7672   24.6179    1.6615 C.3       3 UNK        -0.2001 
     29 N          24.5821   23.1456    0.8072 N.am      3 UNK        -0.4354 
     30 C          24.0842   22.5040   -0.2607 C.2       2 UNK         0.4964 
     31 O          23.2249   22.9721   -1.0093 O.2       2 UNK        -0.5047 
     32 CA         24.6858   21.1101   -0.5426 C.3       2 UNK         0.0288 
     33 CB         24.3596   20.5949   -1.9612 C.3       2 UNK        -0.2113 
     34 N          26.1361   21.0414   -0.2951 N.am      2 UNK        -0.4145 
     35 C          27.0852   21.8132   -0.8531 C.2       1 UNK         0.5006 
     36 O          26.8329   22.7300   -1.6344 O.2       1 UNK        -0.5103 
     37 C          28.6561   29.5765    0.7319 C.2       5 UNK         0.5055 
     38 O          28.4718   30.6179    1.3636 O.2       5 UNK        -0.5220 
     39 N          29.2894   29.5383   -0.4476 N.am      6 UNK        -0.4450 
     40 CA         29.7731   30.7049   -1.1941 C.3       6 UNK         0.0367 
     41 CB         30.2378   30.2498   -2.5868 C.3       6 UNK        -0.1929 
     42 C          30.8887   31.4996   -0.4907 C.2       6 UNK         0.5070 
     43 O          31.0205   32.6974   -0.7429 O.2       6 UNK        -0.5237 
     44 N          31.6623   30.8301    0.3727 N.am      7 UNK        -0.4739 
     45 CA         32.7666   31.4088    1.1411 C.3       7 UNK         0.0276 
     46 CB         34.0813   30.7127    0.7403 C.3       7 UNK        -0.1927 
     47 C          32.4928   31.3214    2.6513 C.2       7 UNK         0.5013 
     48 O          33.4208   31.0776    3.4244 O.2       7 UNK        -0.5193 
     49 N          31.2290   31.5155    3.0620 N.am      8 UNK        -0.4253 
     50 CA         30.7641   31.4403    4.4564 C.3       8 UNK         0.0242 
     51 CB         29.2676   31.7834    4.5240 C.3       8 UNK        -0.2000 
     52 C          31.5473   32.3193    5.4494 C.2       8 UNK         0.4948 
     53 O          31.7199   31.9175    6.5992 O.2       8 UNK        -0.5275 
     54 N          32.0455   33.4727    4.9822 N.am      9 UNK        -0.4246 
     55 CA         32.9149   34.3754    5.7416 C.3       9 UNK         0.0261 
     56 CB         33.0856   35.6879    4.9593 C.3       9 UNK        -0.1959 
     57 C          34.2917   33.7738    6.0887 C.2       9 UNK         0.5033 
     58 O          34.8868   34.1916    7.0834 O.2       9 UNK        -0.5390 
     59 N          34.7732   32.8200    5.2790 N.am      10 UNK        -0.4215 
     60 CA         36.0117   32.0788    5.5144 C.3       10 UNK         0.0240 
     61 CB         36.7198   31.8132    4.1746 C.3       10 UNK        -0.1982 
     62 C          35.7291   30.7613    6.2500 C.2       10 UNK         0.4970 
     63 O          36.4531   30.4349    7.1916 O.2       10 UNK        -0.4916 
     64 N          34.6963   30.0293    5.8094 N.am      11 UNK        -0.4279 
     65 CA         34.2889   28.7397    6.3893 C.3       11 UNK         0.1003 
     66 C          33.6789   28.8344    7.8162 C.2       11 UNK         0.5709 
     67 N          33.0302   29.9282    8.1947 N.am      11 UNK        -0.7358 
     68 O          33.8075   27.8965    8.5996 O.2       11 UNK        -0.4999 
     69 C69        33.3532   27.9494    5.4410 C.3       12 UNK        -0.0954 
     70 S70        34.1929   27.4479    3.9016 S.3       12 UNK        -0.2268 
     71 C71        32.8378   27.5313    2.6918 C.3       12 UNK         0.0203 
     72 H72        29.1627   18.2728    1.7706 H         1 UNK         0.0888 
     73 H73        29.9046   17.3817    0.4410 H         1 UNK         0.0888 
     74 H74        28.1692   17.2441    0.7362 H         1 UNK         0.0888 
     75 H75        28.9301   20.4486    1.2960 H         1 UNK         0.3017 
     76 H76        29.0937   21.4424   -1.4116 H         1 UNK         0.0873 
     77 H77        28.6532   22.9663    1.2050 H         1 UNK         0.0745 
     78 H78        28.9953   23.7022   -0.3382 H         1 UNK         0.0745 
     79 H79        30.3969   22.1271    2.8003 H         1 UNK         0.0705 
     80 H80        32.0985   22.4597    2.6097 H         1 UNK         0.0705 
     81 H81        32.8222   24.8880    2.0325 H         1 UNK         0.1334 
     82 H82        30.4521   27.8965    3.9584 H         1 UNK         0.1417 
     83 H83        28.9508   23.8976    3.5961 H         1 UNK         0.1562 
     84 H84        28.4677   27.1999    5.2298 H         1 UNK         0.0748 
     85 H85        27.9452   25.5374    5.2040 H         1 UNK         0.0748 
     86 H86        28.2742   28.7939    3.3845 H         1 UNK         0.0940 
     87 H87        26.6914   29.0493    2.7088 H         1 UNK         0.0940 
     88 H88        28.9814   27.5562    1.3286 H         1 UNK         0.0703 
     89 H89        26.1822   27.6551    0.6630 H         1 UNK         0.3081 
     90 H90        25.4841   27.1731   -1.7053 H         1 UNK         0.0719 
     91 H91        27.3603   24.9998   -2.7643 H         1 UNK         0.0809 
     92 H92        25.7142   25.2728   -3.3340 H         1 UNK         0.0809 
     93 H93        26.9426   26.5106   -3.5521 H         1 UNK         0.0809 
     94 H94        25.8481   24.4016   -0.8135 H         1 UNK         0.2990 
     95 H95        24.8336   24.6264    2.1971 H         1 UNK         0.0690 
     96 H96        22.4634   23.8172    2.3356 H         1 UNK         0.0788 
     97 H97        22.1184   24.5857    0.7859 H         1 UNK         0.0788 
     98 H98        22.5698   25.5607    2.1734 H         1 UNK         0.0788 
     99 H99        25.2902   22.6640    1.3437 H         1 UNK         0.2993 
    100 H100       24.2157   20.4308    0.1703 H         1 UNK         0.0949 
    101 H101       23.2821   20.5231   -2.1149 H         1 UNK         0.0767 
    102 H102       24.7553   21.2569   -2.7324 H         1 UNK         0.0767 
    103 H103       24.7761   19.6013   -2.1272 H         1 UNK         0.0767 
    104 H104       26.4404   20.3227    0.3465 H         1 UNK         0.3013 
    105 H105       29.3464   28.6344   -0.9110 H         1 UNK         0.3121 
    106 H106       28.9277   31.3843   -1.3224 H         1 UNK         0.0774 
    107 H107       29.4296   29.7689   -3.1382 H         1 UNK         0.0815 
    108 H108       31.0679   29.5448   -2.5242 H         1 UNK         0.0815 
    109 H109       30.5749   31.0986   -3.1836 H         1 UNK         0.0815 
    110 H110       31.4658   29.8511    0.5249 H         1 UNK         0.2987 
    111 H111       32.8742   32.4719    0.9163 H         1 UNK         0.0949 
    112 H112       34.0783   29.6550    1.0027 H         1 UNK         0.0806 
    113 H113       34.2591   30.7913   -0.3322 H         1 UNK         0.0806 
    114 H114       34.9359   31.1698    1.2406 H         1 UNK         0.0806 
    115 H115       30.5200   31.6818    2.3592 H         1 UNK         0.3010 
    116 H116       30.8902   30.4057    4.7803 H         1 UNK         0.0829 
    117 H117       28.6685   31.0804    3.9484 H         1 UNK         0.0813 
    118 H118       28.9025   31.7447    5.5515 H         1 UNK         0.0813 
    119 H119       29.0652   32.7851    4.1432 H         1 UNK         0.0813 
    120 H120       31.8450   33.7272    4.0260 H         1 UNK         0.3038 
    121 H121       32.4136   34.6026    6.6850 H         1 UNK         0.0769 
    122 H122       33.5646   35.5236    3.9932 H         1 UNK         0.0811 
    123 H123       33.7052   36.3944    5.5136 H         1 UNK         0.0811 
    124 H124       32.1256   36.1731    4.7819 H         1 UNK         0.0811 
    125 H125       34.1944   32.4853    4.5148 H         1 UNK         0.3204 
    126 H126       36.6866   32.6729    6.1344 H         1 UNK         0.0748 
    127 H127       36.9450   32.7446    3.6550 H         1 UNK         0.0771 
    128 H128       37.6653   31.2927    4.3320 H         1 UNK         0.0771 
    129 H129       36.1169   31.1957    3.5081 H         1 UNK         0.0771 
    130 H130       34.1740   30.3457    4.9977 H         1 UNK         0.2980 
    131 H131       35.1995   28.1476    6.5027 H         1 UNK         0.0545 
    132 H132       32.6516   29.9706    9.1267 H         1 UNK         0.3459 
    133 H133       32.8260   30.6779    7.5406 H         1 UNK         0.3459 
    134 H134       32.9870   27.0386    5.9188 H         1 UNK         0.0616 
    135 H135       32.4741   28.5494    5.2035 H         1 UNK         0.0616 
    136 H136       33.2477   27.3712    1.6937 H         1 UNK         0.0634 
    137 H137       32.4134   28.5331    2.6908 H         1 UNK         0.0634 
@<TRIPOS>BOND
     1    1    2 1    
     2    1   72 1    
     3    1   73 1    
     4    1   74 1    
     5    2    3 2    
     6    2    4 am   BACKBONE|DICT|INTERRES
     7    4    5 1    
     8    4   75 1    
     9    5    6 1    
    10    5   35 1    
    11    5   76 1    
    12    6    7 1    
    13    6   77 1    
    14    6   78 1    
    15    7    8 1    
    16    8    9 1    
    17    8   79 1    
    18    8   80 1    
    19    9   10 ar   
    20    9   14 ar   
    21   10   11 ar   
    22   10   81 1    
    23   11   12 ar   
    24   11   71 1    
    25   12   13 ar   
    26   12   82 1    
    27   13   14 ar   
    28   13   15 1    
    29   14   83 1    
    30   15   16 1    
    31   15   84 1    
    32   15   85 1    
    33   16   17 1    
    34   17   18 1    
    35   17   86 1    
    36   17   87 1    
    37   18   19 1    
    38   18   37 1    
    39   18   88 1    
    40   19   20 am   BACKBONE|DICT|INTERRES
    41   19   89 1    
    42   20   21 2    
    43   20   22 1    
    44   22   23 1    
    45   22   24 1    
    46   22   90 1    
    47   23   91 1    
    48   23   92 1    
    49   23   93 1    
    50   24   25 am   BACKBONE|DICT|INTERRES
    51   24   94 1    
    52   25   26 2    
    53   25   27 1    
    54   27   28 1    
    55   27   29 1    
    56   27   95 1    
    57   28   96 1    
    58   28   97 1    
    59   28   98 1    
    60   29   30 am   BACKBONE|DICT|INTERRES
    61   29   99 1    
    62   30   31 2    
    63   30   32 1    
    64   32   33 1    
    65   32   34 1    
    66   32  100 1    
    67   33  101 1    
    68   33  102 1    
    69   33  103 1    
    70   34   35 am   BACKBONE|DICT|INTERRES
    71   34  104 1    
    72   35   36 2    
    73   37   38 2    
    74   37   39 am   BACKBONE|DICT|INTERRES
    75   39   40 1    
    76   39  105 1    
    77   40   41 1    
    78   40   42 1    
    79   40  106 1    
    80   41  107 1    
    81   41  108 1    
    82   41  109 1    
    83   42   43 2    
    84   42   44 am   BACKBONE|DICT|INTERRES
    85   44   45 1    
    86   44  110 1    
    87   45   46 1    
    88   45   47 1    
    89   45  111 1    
    90   46  112 1    
    91   46  113 1    
    92   46  114 1    
    93   47   48 2    
    94   47   49 am   BACKBONE|DICT|INTERRES
    95   49   50 1    
    96   49  115 1    
    97   50   51 1    
    98   50   52 1    
    99   50  116 1    
   100   51  117 1    
   101   51  118 1    
   102   51  119 1    
   103   52   53 2    
   104   52   54 am   BACKBONE|DICT|INTERRES
   105   54   55 1    
   106   54  120 1    
   107   55   56 1    
   108   55   57 1    
   109   55  121 1    
   110   56  122 1    
   111   56  123 1    
   112   56  124 1    
   113   57   58 2    
   114   57   59 am   BACKBONE|DICT|INTERRES
   115   59   60 1    
   116   59  125 1    
   117   60   61 1    
   118   60   62 1    
   119   60  126 1    
   120   61  127 1    
   121   61  128 1    
   122   61  129 1    
   123   62   63 2    
   124   62   64 am   BACKBONE|DICT|INTERRES
   125   64   65 1    
   126   64  130 1    
   127   65   66 1    
   128   65   69 1    
   129   65  131 1    
   130   66   67 am   BACKBONE|DICT|INTERRES
   131   66   68 2    
   132   67  132 1    
   133   67  133 1    
   134   69   70 1    
   135   69  134 1    
   136   69  135 1    
   137   70   71 1    
   138   71  136 1    
   139   71  137 1    
@<TRIPOS>SUBSTRUCTURE
     1 UNK         1 GROUP             0       ****    0 ROOT    
