@<TRIPOS>MOLECULE
3R136
137   139    1
SMALL
USER_CHARGES


@<TRIPOS>ATOM
      1 CA         24.8855   20.6254    1.0770 C.3       0 UNK        -0.1979 
      2 C          25.8911   21.5743    0.4433 C.2       0 UNK         0.4864 
      3 O          25.5044   22.4359   -0.3488 O.2       0 UNK        -0.5359 
      4 N          27.1801   21.4263    0.7832 N.am      1 UNK        -0.4318 
      5 CA         28.2657   22.2848    0.2977 C.3       1 UNK         0.0824 
      6 C6         29.6726   21.7016    0.5743 C.3       12 UNK        -0.0944 
      7 S7         30.0154   21.3482    2.3340 S.3       12 UNK        -0.2672 
      8 C8         31.7351   21.9241    2.4941 C.3       12 UNK         0.0333 
      9 C9         31.8346   23.4370    2.6395 C.ar      12 UNK        -0.0807 
     10 C10        31.5998   24.0316    3.8814 C.ar      12 UNK        -0.0894 
     11 C11        31.7529   25.4101    4.0527 C.ar      12 UNK        -0.0804 
     12 C12        32.1301   26.2018    2.9630 C.ar      12 UNK        -0.0824 
     13 C13        32.3847   25.6174    1.7162 C.ar      12 UNK        -0.0762 
     14 C14        32.2237   24.2359    1.5597 C.ar      12 UNK        -0.0782 
     15 C15        32.9041   26.4563    0.5524 C.3       12 UNK         0.0230 
     16 S16        31.7946   27.8229    0.0934 S.3       12 UNK        -0.2608 
     17 C17        30.2776   26.9206   -0.3587 C.3       12 UNK        -0.0989 
     18 CA         29.3194   27.6917   -1.3074 C.3       5 UNK         0.0716 
     19 N          28.2954   26.7780   -1.8092 N.am      5 UNK        -0.4135 
     20 C          27.4669   26.9903   -2.8390 C.2       4 UNK         0.5031 
     21 O          27.5741   27.9268   -3.6320 O.2       4 UNK        -0.5229 
     22 CA         26.3000   25.9934   -2.9783 C.3       4 UNK         0.0329 
     23 CB         26.7800   24.6693   -3.5952 C.3       4 UNK        -0.2001 
     24 N          25.6681   25.7277   -1.6817 N.am      4 UNK        -0.4303 
     25 C          24.9084   26.6135   -1.0151 C.2       3 UNK         0.5044 
     26 O          24.4852   27.6606   -1.5055 O.2       3 UNK        -0.5152 
     27 CA         24.6136   26.3023    0.4587 C.3       3 UNK         0.0319 
     28 CB         23.4391   25.3189    0.6090 C.3       3 UNK        -0.2001 
     29 N          25.8232   25.7786    1.0860 N.am      3 UNK        -0.4354 
     30 C          26.1333   25.7642    2.3831 C.2       2 UNK         0.4964 
     31 O          25.3763   26.1561    3.2722 O.2       2 UNK        -0.5047 
     32 CA         27.5343   25.2095    2.7318 C.3       2 UNK         0.0288 
     33 CB         27.7537   25.0568    4.2483 C.3       2 UNK        -0.2113 
     34 N          27.8174   23.9232    2.0821 N.am      2 UNK        -0.4145 
     35 C          28.1125   23.7370    0.7867 C.2       1 UNK         0.5006 
     36 O          28.1703   24.6536   -0.0332 O.2       1 UNK        -0.5103 
     37 C          28.6601   28.8905   -0.5884 C.2       5 UNK         0.5055 
     38 O          27.5036   28.8112   -0.1678 O.2       5 UNK        -0.5220 
     39 N          29.4491   29.9521   -0.3783 N.am      6 UNK        -0.4450 
     40 CA         29.1139   31.1204    0.4440 C.3       6 UNK         0.0367 
     41 CB         30.1218   32.2407    0.1371 C.3       6 UNK        -0.1929 
     42 C          29.0563   30.8306    1.9624 C.2       6 UNK         0.5070 
     43 O          28.7763   31.7482    2.7354 O.2       6 UNK        -0.5237 
     44 N          29.3220   29.5778    2.3643 N.am      7 UNK        -0.4739 
     45 CA         29.2731   29.0417    3.7256 C.3       7 UNK         0.0276 
     46 CB         27.8243   29.0416    4.2648 C.3       7 UNK        -0.1927 
     47 C          30.2970   29.7455    4.6297 C.2       7 UNK         0.5013 
     48 O          31.4768   29.7549    4.2804 O.2       7 UNK        -0.5193 
     49 N          29.8482   30.3250    5.7518 N.am      8 UNK        -0.4253 
     50 CA         30.6717   30.9789    6.7772 C.3       8 UNK         0.0242 
     51 CB         29.7626   31.4310    7.9320 C.3       8 UNK        -0.2000 
     52 C          31.5409   32.1538    6.2855 C.2       8 UNK         0.4948 
     53 O          32.5005   32.5088    6.9706 O.2       8 UNK        -0.5275 
     54 N          31.2168   32.7252    5.1164 N.am      9 UNK        -0.4246 
     55 CA         32.0442   33.7182    4.4251 C.3       9 UNK         0.0261 
     56 CB         31.1894   34.4327    3.3676 C.3       9 UNK        -0.1959 
     57 C          33.3134   33.1176    3.7839 C.2       9 UNK         0.5033 
     58 O          34.2364   33.8734    3.4752 O.2       9 UNK        -0.5390 
     59 N          33.3418   31.7926    3.5921 N.am      10 UNK        -0.4215 
     60 CA         34.4729   31.0166    3.0962 C.3       10 UNK         0.0240 
     61 CB         34.0922   30.4068    1.7310 C.3       10 UNK        -0.1982 
     62 C          34.8237   29.9840    4.1811 C.2       10 UNK         0.4970 
     63 O          35.2065   30.3868    5.2805 O.2       10 UNK        -0.4916 
     64 N          34.6724   28.6881    3.8736 N.am      11 UNK        -0.4279 
     65 CA         34.8364   27.5543    4.8026 C.3       11 UNK         0.1003 
     66 C          36.3037   27.2739    5.2521 C.2       11 UNK         0.5709 
     67 N          37.3125   27.8106    4.5753 N.am      11 UNK        -0.7358 
     68 O          36.5404   26.5364    6.2060 O.2       11 UNK        -0.4999 
     69 C69        33.8189   27.6200    5.9844 C.3       12 UNK        -0.0954 
     70 S70        33.0744   26.0096    6.4097 S.3       12 UNK        -0.2268 
     71 C71        31.5381   26.0238    5.4282 C.3       12 UNK         0.0203 
     72 H72        24.1428   21.1898    1.6402 H         1 UNK         0.0888 
     73 H73        24.3684   20.0573    0.3043 H         1 UNK         0.0888 
     74 H74        25.3628   19.9193    1.7562 H         1 UNK         0.0888 
     75 H75        27.4513   20.7022    1.4340 H         1 UNK         0.3017 
     76 H76        28.1603   22.3257   -0.7891 H         1 UNK         0.0873 
     77 H77        30.4363   22.3682    0.1710 H         1 UNK         0.0745 
     78 H78        29.7885   20.7660    0.0250 H         1 UNK         0.0745 
     79 H79        32.3201   21.5749    1.6417 H         1 UNK         0.0705 
     80 H80        32.1771   21.4516    3.3726 H         1 UNK         0.0705 
     81 H81        31.3183   23.4142    4.7238 H         1 UNK         0.1334 
     82 H82        32.2548   27.2682    3.0940 H         1 UNK         0.1417 
     83 H83        32.4342   23.7758    0.6040 H         1 UNK         0.1562 
     84 H84        33.0778   25.8372   -0.3292 H         1 UNK         0.0748 
     85 H85        33.8745   26.8722    0.8258 H         1 UNK         0.0748 
     86 H86        29.7691   26.6309    0.5621 H         1 UNK         0.0940 
     87 H87        30.5809   25.9862   -0.8348 H         1 UNK         0.0940 
     88 H88        29.8845   28.0665   -2.1634 H         1 UNK         0.0703 
     89 H89        28.1346   25.9625   -1.2225 H         1 UNK         0.3081 
     90 H90        25.5555   26.4335   -3.6453 H         1 UNK         0.0719 
     91 H91        27.2492   24.8390   -4.5652 H         1 UNK         0.0809 
     92 H92        27.5115   24.1660   -2.9614 H         1 UNK         0.0809 
     93 H93        25.9480   23.9828   -3.7537 H         1 UNK         0.0809 
     94 H94        25.8935   24.8454   -1.2409 H         1 UNK         0.2990 
     95 H95        24.3529   27.2424    0.9497 H         1 UNK         0.0690 
     96 H96        23.1961   25.1471    1.6576 H         1 UNK         0.0788 
     97 H97        23.6598   24.3527    0.1548 H         1 UNK         0.0788 
     98 H98        22.5414   25.7095    0.1282 H         1 UNK         0.0788 
     99 H99        26.5513   25.4651    0.4524 H         1 UNK         0.2993 
    100 H100       28.2597   25.9402    2.3684 H         1 UNK         0.0949 
    101 H101       27.6269   26.0098    4.7627 H         1 UNK         0.0767 
    102 H102       27.0476   24.3512    4.6877 H         1 UNK         0.0767 
    103 H103       28.7608   24.7040    4.4687 H         1 UNK         0.0767 
    104 H104       27.7603   23.1036    2.6691 H         1 UNK         0.3013 
    105 H105       30.4022   29.9034   -0.7130 H         1 UNK         0.3121 
    106 H106       28.1206   31.4636    0.1474 H         1 UNK         0.0774 
    107 H107       29.8140   33.1760    0.6048 H         1 UNK         0.0815 
    108 H108       31.1202   31.9991    0.5050 H         1 UNK         0.0815 
    109 H109       30.1932   32.4324   -0.9336 H         1 UNK         0.0815 
    110 H110       29.6121   28.9256    1.6511 H         1 UNK         0.2987 
    111 H111       29.5972   28.0024    3.6564 H         1 UNK         0.0949 
    112 H112       27.7603   28.5448    5.2337 H         1 UNK         0.0806 
    113 H113       27.1594   28.5025    3.5898 H         1 UNK         0.0806 
    114 H114       27.4222   30.0491    4.3773 H         1 UNK         0.0806 
    115 H115       28.8552   30.2922    5.9319 H         1 UNK         0.3010 
    116 H116       31.3602   30.2229    7.1610 H         1 UNK         0.0829 
    117 H117       29.2270   30.5891    8.3710 H         1 UNK         0.0813 
    118 H118       30.3447   31.8920    8.7315 H         1 UNK         0.0813 
    119 H119       29.0262   32.1647    7.6014 H         1 UNK         0.0813 
    120 H120       30.4068   32.3792    4.6179 H         1 UNK         0.3038 
    121 H121       32.3708   34.4616    5.1555 H         1 UNK         0.0769 
    122 H122       31.7680   35.1948    2.8438 H         1 UNK         0.0811 
    123 H123       30.3311   34.9303    3.8193 H         1 UNK         0.0811 
    124 H124       30.8168   33.7335    2.6207 H         1 UNK         0.0811 
    125 H125       32.5586   31.2297    3.9207 H         1 UNK         0.3204 
    126 H126       35.3519   31.6502    2.9624 H         1 UNK         0.0748 
    127 H127       34.8980   29.7943    1.3244 H         1 UNK         0.0771 
    128 H128       33.1947   29.7912    1.7997 H         1 UNK         0.0771 
    129 H129       33.8907   31.1904    1.0003 H         1 UNK         0.0771 
    130 H130       34.3764   28.4521    2.9390 H         1 UNK         0.2980 
    131 H131       34.5863   26.6843    4.1963 H         1 UNK         0.0545 
    132 H132       38.2583   27.6174    4.8648 H         1 UNK         0.3459 
    133 H133       37.1380   28.4111    3.7861 H         1 UNK         0.3459 
    134 H134       34.2872   28.0332    6.8794 H         1 UNK         0.0616 
    135 H135       33.0052   28.3078    5.7603 H         1 UNK         0.0616 
    136 H136       30.7793   25.4554    5.9679 H         1 UNK         0.0634 
    137 H137       31.1475   27.0367    5.3449 H         1 UNK         0.0634 
@<TRIPOS>BOND
     1    1    2 1    
     2    1   72 1    
     3    1   73 1    
     4    1   74 1    
     5    2    3 2    
     6    2    4 am   BACKBONE|DICT|INTERRES
     7    4    5 1    
     8    4   75 1    
     9    5    6 1    
    10    5   35 1    
    11    5   76 1    
    12    6    7 1    
    13    6   77 1    
    14    6   78 1    
    15    7    8 1    
    16    8    9 1    
    17    8   79 1    
    18    8   80 1    
    19    9   10 ar   
    20    9   14 ar   
    21   10   11 ar   
    22   10   81 1    
    23   11   12 ar   
    24   11   71 1    
    25   12   13 ar   
    26   12   82 1    
    27   13   14 ar   
    28   13   15 1    
    29   14   83 1    
    30   15   16 1    
    31   15   84 1    
    32   15   85 1    
    33   16   17 1    
    34   17   18 1    
    35   17   86 1    
    36   17   87 1    
    37   18   19 1    
    38   18   37 1    
    39   18   88 1    
    40   19   20 am   BACKBONE|DICT|INTERRES
    41   19   89 1    
    42   20   21 2    
    43   20   22 1    
    44   22   23 1    
    45   22   24 1    
    46   22   90 1    
    47   23   91 1    
    48   23   92 1    
    49   23   93 1    
    50   24   25 am   BACKBONE|DICT|INTERRES
    51   24   94 1    
    52   25   26 2    
    53   25   27 1    
    54   27   28 1    
    55   27   29 1    
    56   27   95 1    
    57   28   96 1    
    58   28   97 1    
    59   28   98 1    
    60   29   30 am   BACKBONE|DICT|INTERRES
    61   29   99 1    
    62   30   31 2    
    63   30   32 1    
    64   32   33 1    
    65   32   34 1    
    66   32  100 1    
    67   33  101 1    
    68   33  102 1    
    69   33  103 1    
    70   34   35 am   BACKBONE|DICT|INTERRES
    71   34  104 1    
    72   35   36 2    
    73   37   38 2    
    74   37   39 am   BACKBONE|DICT|INTERRES
    75   39   40 1    
    76   39  105 1    
    77   40   41 1    
    78   40   42 1    
    79   40  106 1    
    80   41  107 1    
    81   41  108 1    
    82   41  109 1    
    83   42   43 2    
    84   42   44 am   BACKBONE|DICT|INTERRES
    85   44   45 1    
    86   44  110 1    
    87   45   46 1    
    88   45   47 1    
    89   45  111 1    
    90   46  112 1    
    91   46  113 1    
    92   46  114 1    
    93   47   48 2    
    94   47   49 am   BACKBONE|DICT|INTERRES
    95   49   50 1    
    96   49  115 1    
    97   50   51 1    
    98   50   52 1    
    99   50  116 1    
   100   51  117 1    
   101   51  118 1    
   102   51  119 1    
   103   52   53 2    
   104   52   54 am   BACKBONE|DICT|INTERRES
   105   54   55 1    
   106   54  120 1    
   107   55   56 1    
   108   55   57 1    
   109   55  121 1    
   110   56  122 1    
   111   56  123 1    
   112   56  124 1    
   113   57   58 2    
   114   57   59 am   BACKBONE|DICT|INTERRES
   115   59   60 1    
   116   59  125 1    
   117   60   61 1    
   118   60   62 1    
   119   60  126 1    
   120   61  127 1    
   121   61  128 1    
   122   61  129 1    
   123   62   63 2    
   124   62   64 am   BACKBONE|DICT|INTERRES
   125   64   65 1    
   126   64  130 1    
   127   65   66 1    
   128   65   69 1    
   129   65  131 1    
   130   66   67 am   BACKBONE|DICT|INTERRES
   131   66   68 2    
   132   67  132 1    
   133   67  133 1    
   134   69   70 1    
   135   69  134 1    
   136   69  135 1    
   137   70   71 1    
   138   71  136 1    
   139   71  137 1    
@<TRIPOS>SUBSTRUCTURE
     1 UNK         1 GROUP             0       ****    0 ROOT    
