@<TRIPOS>MOLECULE
3R136
137   139    1
SMALL
USER_CHARGES


@<TRIPOS>ATOM
      1 CA         33.3767   23.1774    0.0809 C.3       0 UNK        -0.1979 
      2 C          32.5051   23.5693   -1.1034 C.2       0 UNK         0.4864 
      3 O          33.0394   23.9770   -2.1332 O.2       0 UNK        -0.5359 
      4 N          31.1733   23.4829   -1.0162 N.am      1 UNK        -0.4318 
      5 CA         30.3239   23.0305    0.0892 C.3       1 UNK         0.0824 
      6 C6         30.3299   21.4760    0.2055 C.3       12 UNK        -0.0944 
      7 S7         29.3957   20.7547    1.6045 S.3       12 UNK        -0.2672 
      8 C8         30.6478   20.6006    2.9179 C.3       12 UNK         0.0333 
      9 C9         30.8467   21.9191    3.6493 C.ar      12 UNK        -0.0807 
     10 C10        31.9980   22.6785    3.4352 C.ar      12 UNK        -0.0894 
     11 C11        32.1599   23.9141    4.0681 C.ar      12 UNK        -0.0804 
     12 C12        31.1858   24.3634    4.9630 C.ar      12 UNK        -0.0824 
     13 C13        30.0280   23.6110    5.1901 C.ar      12 UNK        -0.0762 
     14 C14        29.8688   22.3867    4.5326 C.ar      12 UNK        -0.0782 
     15 C15        28.9301   24.1143    6.1233 C.3       12 UNK         0.0230 
     16 S16        28.5315   25.8855    5.9190 S.3       12 UNK        -0.2608 
     17 C17        28.1264   26.0081    4.1423 C.3       12 UNK        -0.0989 
     18 CA         28.6435   27.3397    3.5378 C.3       5 UNK         0.0716 
     19 N          28.9516   27.2322    2.1112 N.am      5 UNK        -0.4135 
     20 C          29.6944   28.1151    1.4266 C.2       4 UNK         0.5031 
     21 O          30.2875   29.0598    1.9468 O.2       4 UNK        -0.5229 
     22 CA         29.7704   27.9354   -0.1004 C.3       4 UNK         0.0329 
     23 CB         30.9932   27.0882   -0.4787 C.3       4 UNK        -0.2001 
     24 N          28.5556   27.3397   -0.6671 N.am      4 UNK        -0.4303 
     25 C          27.3685   27.9653   -0.7070 C.2       3 UNK         0.5044 
     26 O          27.1970   29.1233   -0.3311 O.2       3 UNK        -0.5152 
     27 CA         26.1537   27.1465   -1.1806 C.3       3 UNK         0.0319 
     28 CB         25.9968   27.2482   -2.7053 C.3       3 UNK        -0.2001 
     29 N          26.2147   25.7360   -0.7889 N.am      3 UNK        -0.4354 
     30 C          26.3291   25.2832    0.4674 C.2       2 UNK         0.4964 
     31 O          26.3298   26.0140    1.4584 O.2       2 UNK        -0.5047 
     32 CA         26.5431   23.7714    0.6506 C.3       2 UNK         0.0288 
     33 CB         25.8224   22.9207   -0.4188 C.3       2 UNK        -0.2113 
     34 N          27.9655   23.4058    0.7260 N.am      2 UNK        -0.4145 
     35 C          28.9257   23.6383   -0.1821 C.2       1 UNK         0.5006 
     36 O          28.7464   24.3128   -1.2034 O.2       1 UNK        -0.5103 
     37 C          27.6552   28.4961    3.7768 C.2       5 UNK         0.5055 
     38 O          27.9161   29.3590    4.6175 O.2       5 UNK        -0.5220 
     39 N          26.5642   28.5067    2.9931 N.am      6 UNK        -0.4450 
     40 CA         25.5086   29.5241    3.0133 C.3       6 UNK         0.0367 
     41 CB         24.4028   29.1408    2.0182 C.3       6 UNK        -0.1929 
     42 C          26.0203   30.9475    2.7333 C.2       6 UNK         0.5070 
     43 O          25.5460   31.8928    3.3634 O.2       6 UNK        -0.5237 
     44 N          27.0228   31.0769    1.8537 N.am      7 UNK        -0.4739 
     45 CA         27.7615   32.3088    1.5515 C.3       7 UNK         0.0276 
     46 CB         28.4799   32.1293    0.2005 C.3       7 UNK        -0.1927 
     47 C          28.7331   32.7407    2.6757 C.2       7 UNK         0.5013 
     48 O          29.8600   33.1436    2.3852 O.2       7 UNK        -0.5193 
     49 N          28.2791   32.6548    3.9348 N.am      8 UNK        -0.4253 
     50 CA         28.9778   33.0011    5.1781 C.3       8 UNK         0.0242 
     51 CB         29.1283   34.5331    5.2959 C.3       8 UNK        -0.2000 
     52 C          30.3124   32.2501    5.3638 C.2       8 UNK         0.4948 
     53 O          31.3008   32.8598    5.7777 O.2       8 UNK        -0.5275 
     54 N          30.3082   30.9423    5.0582 N.am      9 UNK        -0.4246 
     55 CA         31.4505   30.0204    5.1006 C.3       9 UNK         0.0261 
     56 CB         31.8609   29.7247    6.5582 C.3       9 UNK        -0.1959 
     57 C          32.6267   30.4905    4.2238 C.2       9 UNK         0.5033 
     58 O          33.7526   30.6204    4.7096 O.2       9 UNK        -0.5390 
     59 N          32.3466   30.7166    2.9329 N.am      10 UNK        -0.4215 
     60 CA         33.3152   31.1390    1.9138 C.3       10 UNK         0.0240 
     61 CB         32.5750   31.4137    0.5943 C.3       10 UNK        -0.1982 
     62 C          34.4473   30.1202    1.6918 C.2       10 UNK         0.4970 
     63 O          35.5669   30.5141    1.3639 O.2       10 UNK        -0.4916 
     64 N          34.1328   28.8382    1.9022 N.am      11 UNK        -0.4279 
     65 CA         35.0749   27.7143    1.9458 C.3       11 UNK         0.1003 
     66 C          35.9173   27.6128    3.2531 C.2       11 UNK         0.5709 
     67 N          35.7052   28.4453    4.2664 N.am      11 UNK        -0.7358 
     68 O          36.7998   26.7628    3.3443 O.2       11 UNK        -0.4999 
     69 C69        34.3611   26.3811    1.5999 C.3       12 UNK        -0.0954 
     70 S70        32.8377   26.0885    2.5660 S.3       12 UNK        -0.2268 
     71 C71        33.3521   24.7943    3.7363 C.3       12 UNK         0.0203 
     72 H72        33.3885   22.0985    0.2247 H         1 UNK         0.0888 
     73 H73        34.4044   23.5027   -0.0793 H         1 UNK         0.0888 
     74 H74        33.0224   23.6604    0.9858 H         1 UNK         0.0888 
     75 H75        30.6140   23.8232   -1.7908 H         1 UNK         0.3017 
     76 H76        30.6867   23.4735    1.0176 H         1 UNK         0.0873 
     77 H77        29.9276   21.0410   -0.7114 H         1 UNK         0.0745 
     78 H78        31.3512   21.1037    0.2684 H         1 UNK         0.0745 
     79 H79        30.3152   19.8450    3.6311 H         1 UNK         0.0705 
     80 H80        31.5858   20.2313    2.5004 H         1 UNK         0.0705 
     81 H81        32.7562   22.3149    2.7573 H         1 UNK         0.1334 
     82 H82        31.3118   25.3208    5.4498 H         1 UNK         0.1417 
     83 H83        28.9754   21.7984    4.6947 H         1 UNK         0.1562 
     84 H84        29.2422   23.9423    7.1541 H         1 UNK         0.0748 
     85 H85        28.0123   23.5419    5.9795 H         1 UNK         0.0748 
     86 H86        27.0498   25.8817    4.0131 H         1 UNK         0.0940 
     87 H87        28.5805   25.1684    3.6160 H         1 UNK         0.0940 
     88 H88        29.5809   27.5898    4.0351 H         1 UNK         0.0703 
     89 H89        28.4316   26.5352    1.5972 H         1 UNK         0.3081 
     90 H90        29.8951   28.9261   -0.5430 H         1 UNK         0.0719 
     91 H91        31.9149   27.5788   -0.1632 H         1 UNK         0.0809 
     92 H92        31.0602   26.9360   -1.5561 H         1 UNK         0.0809 
     93 H93        30.9676   26.1100    0.0002 H         1 UNK         0.0809 
     94 H94        28.6114   26.3804   -0.9942 H         1 UNK         0.2990 
     95 H95        25.2640   27.5752   -0.7166 H         1 UNK         0.0690 
     96 H96        25.0892   26.7491   -3.0453 H         1 UNK         0.0788 
     97 H97        26.8431   26.8019   -3.2294 H         1 UNK         0.0788 
     98 H98        25.9295   28.2903   -3.0215 H         1 UNK         0.0788 
     99 H99        26.2867   25.0610   -1.5371 H         1 UNK         0.2993 
    100 H100       26.1053   23.5197    1.6182 H         1 UNK         0.0949 
    101 H101       25.8617   21.8619   -0.1618 H         1 UNK         0.0767 
    102 H102       24.7685   23.1926   -0.4936 H         1 UNK         0.0767 
    103 H103       26.2639   23.0307   -1.4098 H         1 UNK         0.0767 
    104 H104       28.2195   22.8294    1.5187 H         1 UNK         0.3013 
    105 H105       26.4362   27.7320    2.3473 H         1 UNK         0.3121 
    106 H106       25.0802   29.5214    4.0176 H         1 UNK         0.0774 
    107 H107       24.7614   29.1665    0.9894 H         1 UNK         0.0815 
    108 H108       23.5634   29.8340    2.0855 H         1 UNK         0.0815 
    109 H109       24.0153   28.1411    2.2156 H         1 UNK         0.0815 
    110 H110       27.3037   30.2519    1.3326 H         1 UNK         0.2987 
    111 H111       27.0375   33.1185    1.4384 H         1 UNK         0.0949 
    112 H112       29.2324   31.3412    0.2510 H         1 UNK         0.0806 
    113 H113       27.7773   31.8705   -0.5918 H         1 UNK         0.0806 
    114 H114       28.9848   33.0465   -0.1051 H         1 UNK         0.0806 
    115 H115       27.3265   32.3185    4.0427 H         1 UNK         0.3010 
    116 H116       28.3315   32.6696    5.9923 H         1 UNK         0.0829 
    117 H117       29.7963   34.9320    4.5317 H         1 UNK         0.0813 
    118 H118       28.1662   35.0356    5.1962 H         1 UNK         0.0813 
    119 H119       29.5393   34.8136    6.2665 H         1 UNK         0.0813 
    120 H120       29.4281   30.5282    4.7572 H         1 UNK         0.3038 
    121 H121       31.1106   29.0824    4.6651 H         1 UNK         0.0769 
    122 H122       32.6515   28.9741    6.5952 H         1 UNK         0.0811 
    123 H123       32.2350   30.6158    7.0633 H         1 UNK         0.0811 
    124 H124       31.0206   29.3384    7.1349 H         1 UNK         0.0811 
    125 H125       31.4122   30.4871    2.6020 H         1 UNK         0.3204 
    126 H126       33.7706   32.0700    2.2569 H         1 UNK         0.0748 
    127 H127       31.8260   32.1963    0.7164 H         1 UNK         0.0771 
    128 H128       33.2664   31.7466   -0.1809 H         1 UNK         0.0771 
    129 H129       32.0690   30.5220    0.2217 H         1 UNK         0.0771 
    130 H130       33.1856   28.6147    2.1714 H         1 UNK         0.2980 
    131 H131       35.8097   27.8856    1.1570 H         1 UNK         0.0545 
    132 H132       35.0000   29.1734    4.2249 H         1 UNK         0.3459 
    133 H133       36.2735   28.3556    5.0930 H         1 UNK         0.3459 
    134 H134       34.0683   26.4004    0.5492 H         1 UNK         0.0616 
    135 H135       35.0410   25.5323    1.6870 H         1 UNK         0.0616 
    136 H136       34.1568   24.1918    3.3132 H         1 UNK         0.0634 
    137 H137       33.7498   25.2580    4.6403 H         1 UNK         0.0634 
@<TRIPOS>BOND
     1    1    2 1    
     2    1   72 1    
     3    1   73 1    
     4    1   74 1    
     5    2    3 2    
     6    2    4 am   BACKBONE|DICT|INTERRES
     7    4    5 1    
     8    4   75 1    
     9    5    6 1    
    10    5   35 1    
    11    5   76 1    
    12    6    7 1    
    13    6   77 1    
    14    6   78 1    
    15    7    8 1    
    16    8    9 1    
    17    8   79 1    
    18    8   80 1    
    19    9   10 ar   
    20    9   14 ar   
    21   10   11 ar   
    22   10   81 1    
    23   11   12 ar   
    24   11   71 1    
    25   12   13 ar   
    26   12   82 1    
    27   13   14 ar   
    28   13   15 1    
    29   14   83 1    
    30   15   16 1    
    31   15   84 1    
    32   15   85 1    
    33   16   17 1    
    34   17   18 1    
    35   17   86 1    
    36   17   87 1    
    37   18   19 1    
    38   18   37 1    
    39   18   88 1    
    40   19   20 am   BACKBONE|DICT|INTERRES
    41   19   89 1    
    42   20   21 2    
    43   20   22 1    
    44   22   23 1    
    45   22   24 1    
    46   22   90 1    
    47   23   91 1    
    48   23   92 1    
    49   23   93 1    
    50   24   25 am   BACKBONE|DICT|INTERRES
    51   24   94 1    
    52   25   26 2    
    53   25   27 1    
    54   27   28 1    
    55   27   29 1    
    56   27   95 1    
    57   28   96 1    
    58   28   97 1    
    59   28   98 1    
    60   29   30 am   BACKBONE|DICT|INTERRES
    61   29   99 1    
    62   30   31 2    
    63   30   32 1    
    64   32   33 1    
    65   32   34 1    
    66   32  100 1    
    67   33  101 1    
    68   33  102 1    
    69   33  103 1    
    70   34   35 am   BACKBONE|DICT|INTERRES
    71   34  104 1    
    72   35   36 2    
    73   37   38 2    
    74   37   39 am   BACKBONE|DICT|INTERRES
    75   39   40 1    
    76   39  105 1    
    77   40   41 1    
    78   40   42 1    
    79   40  106 1    
    80   41  107 1    
    81   41  108 1    
    82   41  109 1    
    83   42   43 2    
    84   42   44 am   BACKBONE|DICT|INTERRES
    85   44   45 1    
    86   44  110 1    
    87   45   46 1    
    88   45   47 1    
    89   45  111 1    
    90   46  112 1    
    91   46  113 1    
    92   46  114 1    
    93   47   48 2    
    94   47   49 am   BACKBONE|DICT|INTERRES
    95   49   50 1    
    96   49  115 1    
    97   50   51 1    
    98   50   52 1    
    99   50  116 1    
   100   51  117 1    
   101   51  118 1    
   102   51  119 1    
   103   52   53 2    
   104   52   54 am   BACKBONE|DICT|INTERRES
   105   54   55 1    
   106   54  120 1    
   107   55   56 1    
   108   55   57 1    
   109   55  121 1    
   110   56  122 1    
   111   56  123 1    
   112   56  124 1    
   113   57   58 2    
   114   57   59 am   BACKBONE|DICT|INTERRES
   115   59   60 1    
   116   59  125 1    
   117   60   61 1    
   118   60   62 1    
   119   60  126 1    
   120   61  127 1    
   121   61  128 1    
   122   61  129 1    
   123   62   63 2    
   124   62   64 am   BACKBONE|DICT|INTERRES
   125   64   65 1    
   126   64  130 1    
   127   65   66 1    
   128   65   69 1    
   129   65  131 1    
   130   66   67 am   BACKBONE|DICT|INTERRES
   131   66   68 2    
   132   67  132 1    
   133   67  133 1    
   134   69   70 1    
   135   69  134 1    
   136   69  135 1    
   137   70   71 1    
   138   71  136 1    
   139   71  137 1    
@<TRIPOS>SUBSTRUCTURE
     1 UNK         1 GROUP             0       ****    0 ROOT    
