@<TRIPOS>MOLECULE
3R136
137   139    1
SMALL
USER_CHARGES


@<TRIPOS>ATOM
      1 CA         30.9911   17.8542    1.5688 C.3       0 UNK        -0.1979 
      2 C          30.3476   19.0636    0.9076 C.2       0 UNK         0.4864 
      3 O          31.0001   19.7529    0.1206 O.2       0 UNK        -0.5359 
      4 N          29.0700   19.3281    1.2120 N.am      1 UNK        -0.4318 
      5 CA         28.2834   20.4460    0.6795 C.3       1 UNK         0.0824 
      6 C6         27.0972   20.8127    1.6092 C.3       12 UNK        -0.0944 
      7 S7         27.6540   21.7478    3.0708 S.3       12 UNK        -0.2672 
      8 C8         27.6092   23.4203    2.3563 C.3       12 UNK         0.0333 
      9 C9         27.9024   24.4987    3.3830 C.ar      12 UNK        -0.0807 
     10 C10        29.1934   25.0189    3.5132 C.ar      12 UNK        -0.0894 
     11 C11        29.4392   26.0916    4.3756 C.ar      12 UNK        -0.0804 
     12 C12        28.3888   26.6296    5.1248 C.ar      12 UNK        -0.0824 
     13 C13        27.0955   26.1131    5.0023 C.ar      12 UNK        -0.0762 
     14 C14        26.8609   25.0353    4.1439 C.ar      12 UNK        -0.0782 
     15 C15        25.9380   26.7749    5.7315 C.3       12 UNK         0.0230 
     16 S16        25.5174   28.3791    4.9740 S.3       12 UNK        -0.2608 
     17 C17        25.0313   27.9022    3.2756 C.3       12 UNK        -0.0989 
     18 CA         26.1873   27.9647    2.2387 C.3       5 UNK         0.0716 
     19 N          25.7983   27.3066    0.9878 N.am      5 UNK        -0.4135 
     20 C          26.6313   26.9978   -0.0151 C.2       4 UNK         0.5031 
     21 O          27.8484   27.1979    0.0105 O.2       4 UNK        -0.5229 
     22 CA         25.9729   26.3930   -1.2705 C.3       4 UNK         0.0329 
     23 CB         25.2419   27.4829   -2.0743 C.3       4 UNK        -0.2001 
     24 N          26.9502   25.7441   -2.1480 N.am      4 UNK        -0.4303 
     25 C          27.5235   24.5581   -1.9121 C.2       3 UNK         0.5044 
     26 O          27.2326   23.8269   -0.9615 O.2       3 UNK        -0.5152 
     27 CA         28.6306   24.1439   -2.8966 C.3       3 UNK         0.0319 
     28 CB         29.9333   24.8996   -2.5818 C.3       3 UNK        -0.2001 
     29 N          28.8946   22.7093   -2.8038 N.am      3 UNK        -0.4354 
     30 C          28.2959   21.7556   -3.5309 C.2       2 UNK         0.4964 
     31 O          27.5216   21.9811   -4.4615 O.2       2 UNK        -0.5047 
     32 CA         28.6069   20.2989   -3.1363 C.3       2 UNK         0.0288 
     33 CB         29.8468   19.7833   -3.8847 C.3       2 UNK        -0.2113 
     34 N          28.8219   20.1747   -1.6926 N.am      2 UNK        -0.4145 
     35 C          27.8424   20.1991   -0.7797 C.2       1 UNK         0.5006 
     36 O          26.6493   20.0605   -1.0592 O.2       1 UNK        -0.5103 
     37 C          26.6747   29.4087    1.9922 C.2       5 UNK         0.5055 
     38 O          26.1164   30.1126    1.1458 O.2       5 UNK        -0.5220 
     39 N          27.6846   29.8232    2.7617 N.am      6 UNK        -0.4450 
     40 CA         28.2709   31.1575    2.7776 C.3       6 UNK         0.0367 
     41 CB         29.3540   31.2638    1.6866 C.3       6 UNK        -0.1929 
     42 C          28.8592   31.4044    4.1726 C.2       6 UNK         0.5070 
     43 O          28.9803   30.4642    4.9639 O.2       6 UNK        -0.5237 
     44 N          29.2329   32.6610    4.4454 N.am      7 UNK        -0.4739 
     45 CA         29.9713   33.0579    5.6478 C.3       7 UNK         0.0276 
     46 CB         30.0145   34.5918    5.7314 C.3       7 UNK        -0.1927 
     47 C          31.3974   32.4870    5.6203 C.2       7 UNK         0.5013 
     48 O          32.0038   32.4454    4.5472 O.2       7 UNK        -0.5193 
     49 N          31.9163   32.0856    6.7892 N.am      8 UNK        -0.4253 
     50 CA         33.1845   31.3611    6.9661 C.3       8 UNK         0.0242 
     51 CB         33.4395   31.1398    8.4655 C.3       8 UNK        -0.2000 
     52 C          34.4191   31.9999    6.3038 C.2       8 UNK         0.4948 
     53 O          35.2923   31.2683    5.8370 O.2       8 UNK        -0.5275 
     54 N          34.4499   33.3382    6.2322 N.am      9 UNK        -0.4246 
     55 CA         35.4840   34.1171    5.5440 C.3       9 UNK         0.0261 
     56 CB         35.2740   35.6105    5.8424 C.3       9 UNK        -0.1959 
     57 C          35.5402   33.8757    4.0221 C.2       9 UNK         0.5033 
     58 O          36.6169   34.0081    3.4380 O.2       9 UNK        -0.5390 
     59 N          34.3987   33.5264    3.4138 N.am      10 UNK        -0.4215 
     60 CA         34.2841   33.1432    2.0066 C.3       10 UNK         0.0240 
     61 CB         33.0108   33.7690    1.4118 C.3       10 UNK        -0.1982 
     62 C          34.2525   31.6150    1.8520 C.2       10 UNK         0.4970 
     63 O          34.8586   31.0936    0.9155 O.2       10 UNK        -0.4916 
     64 N          33.5384   30.9324    2.7571 N.am      11 UNK        -0.4279 
     65 CA         33.3487   29.4755    2.7649 C.3       11 UNK         0.1003 
     66 C          34.6399   28.6544    3.0401 C.2       11 UNK         0.5709 
     67 N          35.5744   29.1500    3.8428 N.am      11 UNK        -0.7358 
     68 O          34.8004   27.5579    2.5099 O.2       11 UNK        -0.4999 
     69 C69        32.1962   29.0720    3.7258 C.3       12 UNK        -0.0954 
     70 S70        31.1031   27.7989    3.0210 S.3       12 UNK        -0.2268 
     71 C71        30.8239   26.7123    4.4526 C.3       12 UNK         0.0203 
     72 H72        30.3021   17.3414    2.2398 H         1 UNK         0.0888 
     73 H73        31.3197   17.1433    0.8112 H         1 UNK         0.0888 
     74 H74        31.8613   18.1628    2.1475 H         1 UNK         0.0888 
     75 H75        28.5802   18.7199    1.8527 H         1 UNK         0.3017 
     76 H76        28.9376   21.3194    0.6310 H         1 UNK         0.0873 
     77 H77        26.3542   21.4226    1.0908 H         1 UNK         0.0745 
     78 H78        26.5665   19.9168    1.9357 H         1 UNK         0.0745 
     79 H79        26.6300   23.6042    1.9107 H         1 UNK         0.0705 
     80 H80        28.3282   23.4834    1.5383 H         1 UNK         0.0705 
     81 H81        29.9989   24.6204    2.9114 H         1 UNK         0.1334 
     82 H82        28.5658   27.4817    5.7679 H         1 UNK         0.1417 
     83 H83        25.8586   24.6456    4.0276 H         1 UNK         0.1562 
     84 H84        26.2090   26.9339    6.7762 H         1 UNK         0.0748 
     85 H85        25.0564   26.1318    5.7364 H         1 UNK         0.0748 
     86 H86        24.2068   28.5465    2.9637 H         1 UNK         0.0940 
     87 H87        24.6153   26.8942    3.3132 H         1 UNK         0.0940 
     88 H88        27.0373   27.3998    2.6222 H         1 UNK         0.0703 
     89 H89        24.8099   27.1508    0.8581 H         1 UNK         0.3081 
     90 H90        25.2450   25.6441   -0.9502 H         1 UNK         0.0719 
     91 H91        25.9258   28.2653   -2.4066 H         1 UNK         0.0809 
     92 H92        24.7541   27.0665   -2.9559 H         1 UNK         0.0809 
     93 H93        24.4665   27.9640   -1.4767 H         1 UNK         0.0809 
     94 H94        27.2861   26.2947   -2.9245 H         1 UNK         0.2990 
     95 H95        28.3121   24.3952   -3.9107 H         1 UNK         0.0690 
     96 H96        30.2782   24.7043   -1.5653 H         1 UNK         0.0788 
     97 H97        29.7966   25.9779   -2.6747 H         1 UNK         0.0788 
     98 H98        30.7320   24.6162   -3.2677 H         1 UNK         0.0788 
     99 H99        29.4791   22.4203   -2.0344 H         1 UNK         0.2993 
    100 H100       27.7507   19.6835   -3.4221 H         1 UNK         0.0949 
    101 H101       30.7398   20.3577   -3.6347 H         1 UNK         0.0767 
    102 H102       30.0442   18.7373   -3.6489 H         1 UNK         0.0767 
    103 H103       29.7059   19.8509   -4.9645 H         1 UNK         0.0767 
    104 H104       29.7796   20.1925   -1.3518 H         1 UNK         0.3013 
    105 H105       28.0393   29.2198    3.4957 H         1 UNK         0.3121 
    106 H106       27.4897   31.8995    2.5995 H         1 UNK         0.0774 
    107 H107       29.8003   32.2584    1.6662 H         1 UNK         0.0815 
    108 H108       30.1609   30.5487    1.8504 H         1 UNK         0.0815 
    109 H109       28.9395   31.0761    0.6961 H         1 UNK         0.0815 
    110 H110       29.1265   33.3660    3.7306 H         1 UNK         0.2987 
    111 H111       29.4446   32.6666    6.5211 H         1 UNK         0.0949 
    112 H112       30.5356   35.0288    4.8782 H         1 UNK         0.0806 
    113 H113       29.0108   35.0160    5.7649 H         1 UNK         0.0806 
    114 H114       30.5331   34.9208    6.6329 H         1 UNK         0.0806 
    115 H115       31.3502   32.1889    7.6195 H         1 UNK         0.3010 
    116 H116       33.0522   30.3826    6.5008 H         1 UNK         0.0829 
    117 H117       32.6361   30.5641    8.9256 H         1 UNK         0.0813 
    118 H118       34.3645   30.5840    8.6272 H         1 UNK         0.0813 
    119 H119       33.5286   32.0842    9.0038 H         1 UNK         0.0813 
    120 H120       33.6858   33.8545    6.6433 H         1 UNK         0.3038 
    121 H121       36.4504   33.8182    5.9557 H         1 UNK         0.0769 
    122 H122       36.0459   36.2157    5.3646 H         1 UNK         0.0811 
    123 H123       35.3233   35.8133    6.9124 H         1 UNK         0.0811 
    124 H124       34.3096   35.9645    5.4757 H         1 UNK         0.0811 
    125 H125       33.5656   33.3925    3.9804 H         1 UNK         0.3204 
    126 H126       35.1398   33.5197    1.4421 H         1 UNK         0.0748 
    127 H127       32.8958   33.4973    0.3615 H         1 UNK         0.0771 
    128 H128       32.1124   33.4392    1.9352 H         1 UNK         0.0771 
    129 H129       33.0458   34.8573    1.4631 H         1 UNK         0.0771 
    130 H130       33.0327   31.4507    3.4710 H         1 UNK         0.2980 
    131 H131       33.0445   29.2258    1.7463 H         1 UNK         0.0545 
    132 H132       36.4108   28.6138    4.0075 H         1 UNK         0.3459 
    133 H133       35.4325   30.0212    4.3444 H         1 UNK         0.3459 
    134 H134       32.5781   28.7575    4.6985 H         1 UNK         0.0616 
    135 H135       31.5492   29.9234    3.9337 H         1 UNK         0.0616 
    136 H136       31.5897   25.9357    4.4757 H         1 UNK         0.0634 
    137 H137       30.9235   27.2795    5.3793 H         1 UNK         0.0634 
@<TRIPOS>BOND
     1    1    2 1    
     2    1   72 1    
     3    1   73 1    
     4    1   74 1    
     5    2    3 2    
     6    2    4 am   BACKBONE|DICT|INTERRES
     7    4    5 1    
     8    4   75 1    
     9    5    6 1    
    10    5   35 1    
    11    5   76 1    
    12    6    7 1    
    13    6   77 1    
    14    6   78 1    
    15    7    8 1    
    16    8    9 1    
    17    8   79 1    
    18    8   80 1    
    19    9   10 ar   
    20    9   14 ar   
    21   10   11 ar   
    22   10   81 1    
    23   11   12 ar   
    24   11   71 1    
    25   12   13 ar   
    26   12   82 1    
    27   13   14 ar   
    28   13   15 1    
    29   14   83 1    
    30   15   16 1    
    31   15   84 1    
    32   15   85 1    
    33   16   17 1    
    34   17   18 1    
    35   17   86 1    
    36   17   87 1    
    37   18   19 1    
    38   18   37 1    
    39   18   88 1    
    40   19   20 am   BACKBONE|DICT|INTERRES
    41   19   89 1    
    42   20   21 2    
    43   20   22 1    
    44   22   23 1    
    45   22   24 1    
    46   22   90 1    
    47   23   91 1    
    48   23   92 1    
    49   23   93 1    
    50   24   25 am   BACKBONE|DICT|INTERRES
    51   24   94 1    
    52   25   26 2    
    53   25   27 1    
    54   27   28 1    
    55   27   29 1    
    56   27   95 1    
    57   28   96 1    
    58   28   97 1    
    59   28   98 1    
    60   29   30 am   BACKBONE|DICT|INTERRES
    61   29   99 1    
    62   30   31 2    
    63   30   32 1    
    64   32   33 1    
    65   32   34 1    
    66   32  100 1    
    67   33  101 1    
    68   33  102 1    
    69   33  103 1    
    70   34   35 am   BACKBONE|DICT|INTERRES
    71   34  104 1    
    72   35   36 2    
    73   37   38 2    
    74   37   39 am   BACKBONE|DICT|INTERRES
    75   39   40 1    
    76   39  105 1    
    77   40   41 1    
    78   40   42 1    
    79   40  106 1    
    80   41  107 1    
    81   41  108 1    
    82   41  109 1    
    83   42   43 2    
    84   42   44 am   BACKBONE|DICT|INTERRES
    85   44   45 1    
    86   44  110 1    
    87   45   46 1    
    88   45   47 1    
    89   45  111 1    
    90   46  112 1    
    91   46  113 1    
    92   46  114 1    
    93   47   48 2    
    94   47   49 am   BACKBONE|DICT|INTERRES
    95   49   50 1    
    96   49  115 1    
    97   50   51 1    
    98   50   52 1    
    99   50  116 1    
   100   51  117 1    
   101   51  118 1    
   102   51  119 1    
   103   52   53 2    
   104   52   54 am   BACKBONE|DICT|INTERRES
   105   54   55 1    
   106   54  120 1    
   107   55   56 1    
   108   55   57 1    
   109   55  121 1    
   110   56  122 1    
   111   56  123 1    
   112   56  124 1    
   113   57   58 2    
   114   57   59 am   BACKBONE|DICT|INTERRES
   115   59   60 1    
   116   59  125 1    
   117   60   61 1    
   118   60   62 1    
   119   60  126 1    
   120   61  127 1    
   121   61  128 1    
   122   61  129 1    
   123   62   63 2    
   124   62   64 am   BACKBONE|DICT|INTERRES
   125   64   65 1    
   126   64  130 1    
   127   65   66 1    
   128   65   69 1    
   129   65  131 1    
   130   66   67 am   BACKBONE|DICT|INTERRES
   131   66   68 2    
   132   67  132 1    
   133   67  133 1    
   134   69   70 1    
   135   69  134 1    
   136   69  135 1    
   137   70   71 1    
   138   71  136 1    
   139   71  137 1    
@<TRIPOS>SUBSTRUCTURE
     1 UNK         1 GROUP             0       ****    0 ROOT    
