@<TRIPOS>MOLECULE
3R136
137   139    1
SMALL
USER_CHARGES


@<TRIPOS>ATOM
      1 CA         32.6426   24.6725   -0.4169 C.3       0 UNK        -0.1979 
      2 C          31.1988   24.4696    0.0152 C.2       0 UNK         0.4864 
      3 O          30.3345   25.2635   -0.3559 O.2       0 UNK        -0.5359 
      4 N          30.9260   23.4006    0.7783 N.am      1 UNK        -0.4318 
      5 CA         29.6147   23.0543    1.3533 C.3       1 UNK         0.0824 
      6 C6         29.6611   21.7443    2.1847 C.3       12 UNK        -0.0944 
      7 S7         31.0959   21.6216    3.3080 S.3       12 UNK        -0.2672 
      8 C8         30.3766   22.0897    4.9155 C.3       12 UNK         0.0333 
      9 C9         30.0481   23.5749    5.0117 C.ar      12 UNK        -0.0807 
     10 C10        31.0168   24.5377    4.7100 C.ar      12 UNK        -0.0894 
     11 C11        30.7242   25.9002    4.8151 C.ar      12 UNK        -0.0804 
     12 C12        29.4627   26.3006    5.2628 C.ar      12 UNK        -0.0824 
     13 C13        28.4904   25.3494    5.5824 C.ar      12 UNK        -0.0762 
     14 C14        28.7843   23.9889    5.4444 C.ar      12 UNK        -0.0782 
     15 C15        27.1302   25.7873    6.1025 C.3       12 UNK         0.0230 
     16 S16        25.9460   26.0490    4.7486 S.3       12 UNK        -0.2608 
     17 C17        26.3601   27.7375    4.1777 C.3       12 UNK        -0.0989 
     18 CA         27.1179   27.7805    2.8178 C.3       5 UNK         0.0716 
     19 N          26.5051   26.9462    1.7745 N.am      5 UNK        -0.4135 
     20 C          25.2520   27.0262    1.3038 C.2       4 UNK         0.5031 
     21 O          24.4397   27.8912    1.6359 O.2       4 UNK        -0.5229 
     22 CA         24.8672   25.9506    0.2725 C.3       4 UNK         0.0329 
     23 CB         23.5048   26.2110   -0.4060 C.3       4 UNK        -0.2001 
     24 N          25.9268   25.7361   -0.7204 N.am      4 UNK        -0.4303 
     25 C          26.3920   26.6209   -1.6183 C.2       3 UNK         0.5044 
     26 O          25.9616   27.7687   -1.7227 O.2       3 UNK        -0.5152 
     27 CA         27.5509   26.1813   -2.5377 C.3       3 UNK         0.0319 
     28 CB         28.7186   27.1811   -2.4603 C.3       3 UNK        -0.2001 
     29 N          28.0483   24.8343   -2.2395 N.am      3 UNK        -0.4354 
     30 C          27.4450   23.6985   -2.6261 C.2       2 UNK         0.4964 
     31 O          26.4557   23.6749   -3.3587 O.2       2 UNK        -0.5047 
     32 CA         27.9976   22.3629   -2.0906 C.3       2 UNK         0.0288 
     33 CB         28.7735   21.6236   -3.1933 C.3       2 UNK        -0.2113 
     34 N          28.8548   22.4825   -0.9082 N.am      2 UNK        -0.4145 
     35 C          28.4927   22.9571    0.2945 C.2       1 UNK         0.5006 
     36 O          27.3548   23.3472    0.5639 O.2       1 UNK        -0.5103 
     37 C          27.3919   29.2383    2.3714 C.2       5 UNK         0.5055 
     38 O          27.7738   30.0573    3.2106 O.2       5 UNK        -0.5220 
     39 N          27.2245   29.5474    1.0741 N.am      6 UNK        -0.4450 
     40 CA         27.2965   30.8951    0.4908 C.3       6 UNK         0.0367 
     41 CB         26.8975   30.8264   -0.9915 C.3       6 UNK        -0.1929 
     42 C          28.6455   31.6218    0.6454 C.2       6 UNK         0.5070 
     43 O          28.6807   32.8465    0.5247 O.2       6 UNK        -0.5237 
     44 N          29.7229   30.8772    0.9287 N.am      7 UNK        -0.4739 
     45 CA         31.0468   31.4201    1.2468 C.3       7 UNK         0.0276 
     46 CB         32.0905   30.3000    1.1298 C.3       7 UNK        -0.1927 
     47 C          31.1287   32.0861    2.6363 C.2       7 UNK         0.5013 
     48 O          32.1241   32.7600    2.9008 O.2       7 UNK        -0.5193 
     49 N          30.1056   31.8883    3.4878 N.am      8 UNK        -0.4253 
     50 CA         29.9543   32.4272    4.8452 C.3       8 UNK         0.0242 
     51 CB         29.8043   33.9634    4.8154 C.3       8 UNK        -0.2000 
     52 C          31.0876   31.9517    5.7689 C.2       8 UNK         0.4948 
     53 O          31.9367   32.7455    6.1773 O.2       8 UNK        -0.5275 
     54 N          31.1106   30.6354    6.0212 N.am      9 UNK        -0.4246 
     55 CA         32.0889   29.8668    6.8097 C.3       9 UNK         0.0261 
     56 CB         32.1923   30.3826    8.2587 C.3       9 UNK        -0.1959 
     57 C          33.4838   29.7408    6.1662 C.2       9 UNK         0.5033 
     58 O          34.1316   28.7102    6.3529 O.2       9 UNK        -0.5390 
     59 N          33.9188   30.7426    5.3931 N.am      10 UNK        -0.4215 
     60 CA         35.2033   30.7980    4.6887 C.3       10 UNK         0.0240 
     61 CB         35.5471   32.2742    4.4133 C.3       10 UNK        -0.1982 
     62 C          35.2402   29.9314    3.4101 C.2       10 UNK         0.4970 
     63 O          35.6600   30.4120    2.3556 O.2       10 UNK        -0.4916 
     64 N          34.8058   28.6707    3.5190 N.am      11 UNK        -0.4279 
     65 CA         34.8910   27.6569    2.4575 C.3       11 UNK         0.1003 
     66 C          36.3552   27.2074    2.2005 C.2       11 UNK         0.5709 
     67 N          36.6925   26.8721    0.9625 N.am      11 UNK        -0.7358 
     68 O          37.1736   27.1219    3.1150 O.2       11 UNK        -0.4999 
     69 C69        33.9861   26.4343    2.7590 C.3       12 UNK        -0.0954 
     70 S70        32.2155   26.8651    2.6989 S.3       12 UNK        -0.2268 
     71 C71        31.7757   26.9376    4.4602 C.3       12 UNK         0.0203 
     72 H72        32.9499   25.6987   -0.2179 H         1 UNK         0.0888 
     73 H73        33.3231   24.0053    0.1117 H         1 UNK         0.0888 
     74 H74        32.7426   24.4891   -1.4862 H         1 UNK         0.0888 
     75 H75        31.6812   22.7932    1.0649 H         1 UNK         0.3017 
     76 H76        29.3489   23.8724    2.0264 H         1 UNK         0.0873 
     77 H77        28.7409   21.6308    2.7612 H         1 UNK         0.0745 
     78 H78        29.7086   20.8755    1.5248 H         1 UNK         0.0745 
     79 H79        29.4944   21.4761    5.1048 H         1 UNK         0.0705 
     80 H80        31.0936   21.8446    5.7001 H         1 UNK         0.0705 
     81 H81        31.9985   24.2275    4.3786 H         1 UNK         0.1334 
     82 H82        29.2356   27.3523    5.3663 H         1 UNK         0.1417 
     83 H83        28.0314   23.2527    5.6920 H         1 UNK         0.1562 
     84 H84        27.2200   26.6908    6.7075 H         1 UNK         0.0748 
     85 H85        26.7289   25.0224    6.7693 H         1 UNK         0.0748 
     86 H86        26.9367   28.2465    4.9517 H         1 UNK         0.0940 
     87 H87        25.4239   28.2939    4.1040 H         1 UNK         0.0940 
     88 H88        28.1041   27.3448    2.9812 H         1 UNK         0.0703 
     89 H89        27.0842   26.1943    1.4283 H         1 UNK         0.3081 
     90 H90        24.7810   25.0163    0.8297 H         1 UNK         0.0719 
     91 H91        23.4879   27.1640   -0.9356 H         1 UNK         0.0809 
     92 H92        23.2612   25.4251   -1.1208 H         1 UNK         0.0809 
     93 H93        22.7022   26.2378    0.3320 H         1 UNK         0.0809 
     94 H94        26.3825   24.8320   -0.6705 H         1 UNK         0.2990 
     95 H95        27.1701   26.1921   -3.5611 H         1 UNK         0.0690 
     96 H96        29.5645   26.8551   -3.0657 H         1 UNK         0.0788 
     97 H97        29.0700   27.3147   -1.4366 H         1 UNK         0.0788 
     98 H98        28.4176   28.1619   -2.8298 H         1 UNK         0.0788 
     99 H99        28.8554   24.7873   -1.6230 H         1 UNK         0.2993 
    100 H100       27.1360   21.7539   -1.8086 H         1 UNK         0.0949 
    101 H101       28.1547   21.4833   -4.0809 H         1 UNK         0.0767 
    102 H102       29.6628   22.1759   -3.5001 H         1 UNK         0.0767 
    103 H103       29.0887   20.6336   -2.8626 H         1 UNK         0.0767 
    104 H104       29.8195   22.2093   -1.0273 H         1 UNK         0.3013 
    105 H105       26.9017   28.8171    0.4542 H         1 UNK         0.3121 
    106 H106       26.5548   31.5052    1.0105 H         1 UNK         0.0774 
    107 H107       27.5711   30.1848   -1.5604 H         1 UNK         0.0815 
    108 H108       26.9212   31.8149   -1.4526 H         1 UNK         0.0815 
    109 H109       25.8846   30.4417   -1.1121 H         1 UNK         0.0815 
    110 H110       29.6068   29.8771    1.0023 H         1 UNK         0.2987 
    111 H111       31.2859   32.1870    0.5066 H         1 UNK         0.0949 
    112 H112       31.9606   29.5580    1.9152 H         1 UNK         0.0806 
    113 H113       32.0356   29.7922    0.1668 H         1 UNK         0.0806 
    114 H114       33.1006   30.6997    1.2275 H         1 UNK         0.0806 
    115 H115       29.3432   31.2913    3.1785 H         1 UNK         0.3010 
    116 H116       29.0246   32.0162    5.2426 H         1 UNK         0.0829 
    117 H117       30.7013   34.4561    4.4388 H         1 UNK         0.0813 
    118 H118       28.9675   34.2666    4.1860 H         1 UNK         0.0813 
    119 H119       29.6173   34.3543    5.8162 H         1 UNK         0.0813 
    120 H120       30.3799   30.0817    5.5963 H         1 UNK         0.3038 
    121 H121       31.6862   28.8544    6.8656 H         1 UNK         0.0769 
    122 H122       32.6337   31.3782    8.3107 H         1 UNK         0.0811 
    123 H123       32.8192   29.7228    8.8599 H         1 UNK         0.0811 
    124 H124       31.2137   30.4231    8.7369 H         1 UNK         0.0811 
    125 H125       33.3221   31.5613    5.3185 H         1 UNK         0.3204 
    126 H126       35.9731   30.4015    5.3541 H         1 UNK         0.0748 
    127 H127       36.5313   32.3710    3.9531 H         1 UNK         0.0771 
    128 H128       34.8229   32.7353    3.7401 H         1 UNK         0.0771 
    129 H129       35.5648   32.8564    5.3349 H         1 UNK         0.0771 
    130 H130       34.5249   28.3485    4.4385 H         1 UNK         0.2980 
    131 H131       34.5291   28.1221    1.5379 H         1 UNK         0.0545 
    132 H132       37.6347   26.5639    0.7793 H         1 UNK         0.3459 
    133 H133       36.0297   26.9313    0.2056 H         1 UNK         0.3459 
    134 H134       34.1432   25.6521    2.0148 H         1 UNK         0.0616 
    135 H135       34.2422   25.9830    3.7188 H         1 UNK         0.0616 
    136 H136       32.6498   26.7936    5.0949 H         1 UNK         0.0634 
    137 H137       31.4069   27.9425    4.6628 H         1 UNK         0.0634 
@<TRIPOS>BOND
     1    1    2 1    
     2    1   72 1    
     3    1   73 1    
     4    1   74 1    
     5    2    3 2    
     6    2    4 am   BACKBONE|DICT|INTERRES
     7    4    5 1    
     8    4   75 1    
     9    5    6 1    
    10    5   35 1    
    11    5   76 1    
    12    6    7 1    
    13    6   77 1    
    14    6   78 1    
    15    7    8 1    
    16    8    9 1    
    17    8   79 1    
    18    8   80 1    
    19    9   10 ar   
    20    9   14 ar   
    21   10   11 ar   
    22   10   81 1    
    23   11   12 ar   
    24   11   71 1    
    25   12   13 ar   
    26   12   82 1    
    27   13   14 ar   
    28   13   15 1    
    29   14   83 1    
    30   15   16 1    
    31   15   84 1    
    32   15   85 1    
    33   16   17 1    
    34   17   18 1    
    35   17   86 1    
    36   17   87 1    
    37   18   19 1    
    38   18   37 1    
    39   18   88 1    
    40   19   20 am   BACKBONE|DICT|INTERRES
    41   19   89 1    
    42   20   21 2    
    43   20   22 1    
    44   22   23 1    
    45   22   24 1    
    46   22   90 1    
    47   23   91 1    
    48   23   92 1    
    49   23   93 1    
    50   24   25 am   BACKBONE|DICT|INTERRES
    51   24   94 1    
    52   25   26 2    
    53   25   27 1    
    54   27   28 1    
    55   27   29 1    
    56   27   95 1    
    57   28   96 1    
    58   28   97 1    
    59   28   98 1    
    60   29   30 am   BACKBONE|DICT|INTERRES
    61   29   99 1    
    62   30   31 2    
    63   30   32 1    
    64   32   33 1    
    65   32   34 1    
    66   32  100 1    
    67   33  101 1    
    68   33  102 1    
    69   33  103 1    
    70   34   35 am   BACKBONE|DICT|INTERRES
    71   34  104 1    
    72   35   36 2    
    73   37   38 2    
    74   37   39 am   BACKBONE|DICT|INTERRES
    75   39   40 1    
    76   39  105 1    
    77   40   41 1    
    78   40   42 1    
    79   40  106 1    
    80   41  107 1    
    81   41  108 1    
    82   41  109 1    
    83   42   43 2    
    84   42   44 am   BACKBONE|DICT|INTERRES
    85   44   45 1    
    86   44  110 1    
    87   45   46 1    
    88   45   47 1    
    89   45  111 1    
    90   46  112 1    
    91   46  113 1    
    92   46  114 1    
    93   47   48 2    
    94   47   49 am   BACKBONE|DICT|INTERRES
    95   49   50 1    
    96   49  115 1    
    97   50   51 1    
    98   50   52 1    
    99   50  116 1    
   100   51  117 1    
   101   51  118 1    
   102   51  119 1    
   103   52   53 2    
   104   52   54 am   BACKBONE|DICT|INTERRES
   105   54   55 1    
   106   54  120 1    
   107   55   56 1    
   108   55   57 1    
   109   55  121 1    
   110   56  122 1    
   111   56  123 1    
   112   56  124 1    
   113   57   58 2    
   114   57   59 am   BACKBONE|DICT|INTERRES
   115   59   60 1    
   116   59  125 1    
   117   60   61 1    
   118   60   62 1    
   119   60  126 1    
   120   61  127 1    
   121   61  128 1    
   122   61  129 1    
   123   62   63 2    
   124   62   64 am   BACKBONE|DICT|INTERRES
   125   64   65 1    
   126   64  130 1    
   127   65   66 1    
   128   65   69 1    
   129   65  131 1    
   130   66   67 am   BACKBONE|DICT|INTERRES
   131   66   68 2    
   132   67  132 1    
   133   67  133 1    
   134   69   70 1    
   135   69  134 1    
   136   69  135 1    
   137   70   71 1    
   138   71  136 1    
   139   71  137 1    
@<TRIPOS>SUBSTRUCTURE
     1 UNK         1 GROUP             0       ****    0 ROOT    
