@<TRIPOS>MOLECULE
3R136
137   139    1
SMALL
USER_CHARGES


@<TRIPOS>ATOM
      1 CA         32.3497   23.6364   -4.9856 C.3       0 UNK        -0.1979 
      2 C          31.7841   24.7250   -4.0850 C.2       0 UNK         0.4864 
      3 O          31.7523   25.8914   -4.4818 O.2       0 UNK        -0.5359 
      4 N          31.3478   24.3540   -2.8750 N.am      1 UNK        -0.4318 
      5 CA         30.7047   25.2439   -1.9037 C.3       1 UNK         0.0824 
      6 C6         30.9012   24.7383   -0.4490 C.3       12 UNK        -0.0944 
      7 S7         30.2511   23.0598   -0.1319 S.3       12 UNK        -0.2672 
      8 C8         31.5429   22.3620    0.9440 C.3       12 UNK         0.0333 
      9 C9         31.5383   22.9965    2.3287 C.ar      12 UNK        -0.0807 
     10 C10        32.4019   24.0556    2.6239 C.ar      12 UNK        -0.0894 
     11 C11        32.4253   24.6202    3.9024 C.ar      12 UNK        -0.0804 
     12 C12        31.5807   24.1125    4.8946 C.ar      12 UNK        -0.0824 
     13 C13        30.7108   23.0543    4.6121 C.ar      12 UNK        -0.0762 
     14 C14        30.6913   22.5036    3.3264 C.ar      12 UNK        -0.0782 
     15 C15        29.8226   22.4730    5.7035 C.3       12 UNK         0.0230 
     16 S16        28.0956   23.0321    5.5637 S.3       12 UNK        -0.2608 
     17 C17        28.2038   24.7670    6.1234 C.3       12 UNK        -0.0989 
     18 CA         27.8543   25.7749    4.9978 C.3       5 UNK         0.0716 
     19 N          26.4981   25.5540    4.4774 N.am      5 UNK        -0.4135 
     20 C          26.0315   25.9724    3.2954 C.2       4 UNK         0.5031 
     21 O          26.6912   26.6436    2.4948 O.2       4 UNK        -0.5229 
     22 CA         24.5740   25.6241    2.9742 C.3       4 UNK         0.0329 
     23 CB         23.6128   26.6197    3.6456 C.3       4 UNK        -0.2001 
     24 N          24.4049   25.6933    1.5278 N.am      4 UNK        -0.4303 
     25 C          23.7795   24.7931    0.7628 C.2       3 UNK         0.5044 
     26 O          23.1367   23.8430    1.2122 O.2       3 UNK        -0.5152 
     27 CA         23.8832   24.9702   -0.7675 C.3       3 UNK         0.0319 
     28 CB         22.5417   25.4549   -1.3426 C.3       3 UNK        -0.2001 
     29 N          24.9477   25.8795   -1.2155 N.am      3 UNK        -0.4354 
     30 C          26.2629   25.6761   -1.0514 C.2       2 UNK         0.4964 
     31 O          26.7312   24.6884   -0.4818 O.2       2 UNK        -0.5047 
     32 CA         27.1876   26.7869   -1.5906 C.3       2 UNK         0.0288 
     33 CB         26.9810   28.1063   -0.8217 C.3       2 UNK        -0.2113 
     34 N          28.6050   26.4310   -1.5096 N.am      2 UNK        -0.4145 
     35 C          29.2208   25.5034   -2.2543 C.2       1 UNK         0.5006 
     36 O          28.6683   24.8830   -3.1689 O.2       1 UNK        -0.5103 
     37 C          28.0575   27.2425    5.4440 C.2       5 UNK         0.5055 
     38 O          28.3488   27.5039    6.6116 O.2       5 UNK        -0.5220 
     39 N          27.8911   28.1744    4.5016 N.am      6 UNK        -0.4450 
     40 CA         28.0542   29.6180    4.6609 C.3       6 UNK         0.0367 
     41 CB         26.7556   30.2375    5.2140 C.3       6 UNK        -0.1929 
     42 C          28.4968   30.2307    3.3213 C.2       6 UNK         0.5070 
     43 O          28.0095   31.2933    2.9328 O.2       6 UNK        -0.5237 
     44 N          29.3887   29.5211    2.6164 N.am      7 UNK        -0.4739 
     45 CA         29.9356   29.9070    1.3156 C.3       7 UNK         0.0276 
     46 CB         30.5935   28.6688    0.6818 C.3       7 UNK        -0.1927 
     47 C          30.9453   31.0638    1.4203 C.2       7 UNK         0.5013 
     48 O          31.4323   31.3728    2.5125 O.2       7 UNK        -0.5193 
     49 N          31.2916   31.6347    0.2565 N.am      8 UNK        -0.4253 
     50 CA         32.2233   32.7581    0.0682 C.3       8 UNK         0.0242 
     51 CB         32.2618   33.1279   -1.4241 C.3       8 UNK        -0.2000 
     52 C          33.6538   32.5394    0.6030 C.2       8 UNK         0.4948 
     53 O          34.3833   33.5154    0.7791 O.2       8 UNK        -0.5275 
     54 N          34.0172   31.2827    0.8944 N.am      9 UNK        -0.4246 
     55 CA         35.2260   30.8892    1.6243 C.3       9 UNK         0.0261 
     56 CB         35.4440   29.3783    1.4314 C.3       9 UNK        -0.1959 
     57 C          35.2001   31.2520    3.1277 C.2       9 UNK         0.5033 
     58 O          36.2052   31.0257    3.8028 O.2       9 UNK        -0.5390 
     59 N          34.0735   31.7940    3.6201 N.am      10 UNK        -0.4215 
     60 CA         33.7761   32.1809    5.0029 C.3       10 UNK         0.0240 
     61 CB         34.7898   33.2078    5.5543 C.3       10 UNK        -0.1982 
     62 C          33.5920   30.9450    5.8962 C.2       10 UNK         0.4970 
     63 O          34.2202   30.8342    6.9507 O.2       10 UNK        -0.4916 
     64 N          32.7246   30.0343    5.4379 N.am      11 UNK        -0.4279 
     65 CA         32.3801   28.7786    6.1234 C.3       11 UNK         0.1003 
     66 C          31.5558   28.9518    7.4328 C.2       11 UNK         0.5709 
     67 N          30.9444   30.1032    7.6882 N.am      11 UNK        -0.7358 
     68 O          31.4886   28.0270    8.2386 O.2       11 UNK        -0.4999 
     69 C69        31.6807   27.7856    5.1620 C.3       12 UNK        -0.0954 
     70 S70        32.7085   27.3694    3.7166 S.3       12 UNK        -0.2268 
     71 C71        33.3897   25.7568    4.2087 C.3       12 UNK         0.0203 
     72 H72        33.3817   23.8657   -5.2495 H         1 UNK         0.0888 
     73 H73        32.3324   22.6589   -4.5037 H         1 UNK         0.0888 
     74 H74        31.7684   23.5712   -5.9049 H         1 UNK         0.0888 
     75 H75        31.3607   23.3779   -2.6154 H         1 UNK         0.3017 
     76 H76        31.2022   26.2144   -1.9697 H         1 UNK         0.0873 
     77 H77        30.4523   25.4188    0.2760 H         1 UNK         0.0745 
     78 H78        31.9688   24.7499   -0.2278 H         1 UNK         0.0745 
     79 H79        31.3781   21.2873    1.0347 H         1 UNK         0.0705 
     80 H80        32.5190   22.4771    0.4699 H         1 UNK         0.0705 
     81 H81        33.0655   24.4389    1.8612 H         1 UNK         0.1334 
     82 H82        31.6108   24.5310    5.8910 H         1 UNK         0.1417 
     83 H83        30.0227   21.6824    3.1054 H         1 UNK         0.1562 
     84 H84        30.2088   22.7192    6.6939 H         1 UNK         0.0748 
     85 H85        29.8413   21.3840    5.6379 H         1 UNK         0.0748 
     86 H86        29.2064   24.9592    6.5094 H         1 UNK         0.0940 
     87 H87        27.5300   24.8929    6.9731 H         1 UNK         0.0940 
     88 H88        28.5587   25.6024    4.1802 H         1 UNK         0.0703 
     89 H89        25.8831   25.0277    5.0806 H         1 UNK         0.3081 
     90 H90        24.3717   24.6129    3.3342 H         1 UNK         0.0719 
     91 H91        23.7075   26.5884    4.7317 H         1 UNK         0.0809 
     92 H92        23.8090   27.6453    3.3296 H         1 UNK         0.0809 
     93 H93        22.5749   26.3890    3.4049 H         1 UNK         0.0809 
     94 H94        24.9839   26.3892    1.0763 H         1 UNK         0.2990 
     95 H95        24.0966   23.9845   -1.1862 H         1 UNK         0.0690 
     96 H96        22.5657   25.4927   -2.4319 H         1 UNK         0.0788 
     97 H97        22.2813   26.4486   -0.9756 H         1 UNK         0.0788 
     98 H98        21.7298   24.7819   -1.0630 H         1 UNK         0.0788 
     99 H99        24.6447   26.7209   -1.6854 H         1 UNK         0.2993 
    100 H100       26.9371   26.9470   -2.6417 H         1 UNK         0.0949 
    101 H101       27.2199   27.9992    0.2371 H         1 UNK         0.0767 
    102 H102       27.6096   28.9006   -1.2249 H         1 UNK         0.0767 
    103 H103       25.9499   28.4549   -0.8889 H         1 UNK         0.0767 
    104 H104       29.1194   26.8580   -0.7564 H         1 UNK         0.3013 
    105 H105       27.5983   27.8542    3.5786 H         1 UNK         0.3121 
    106 H106       28.8590   29.8112    5.3732 H         1 UNK         0.0774 
    107 H107       25.9178   30.0846    4.5328 H         1 UNK         0.0815 
    108 H108       26.8662   31.3121    5.3643 H         1 UNK         0.0815 
    109 H109       26.4880   29.8041    6.1777 H         1 UNK         0.0815 
    110 H110       29.7575   28.6746    3.0226 H         1 UNK         0.2987 
    111 H111       29.1060   30.2318    0.6833 H         1 UNK         0.0949 
    112 H112       31.5059   28.3820    1.2054 H         1 UNK         0.0806 
    113 H113       29.9198   27.8136    0.7020 H         1 UNK         0.0806 
    114 H114       30.8604   28.8496   -0.3601 H         1 UNK         0.0806 
    115 H115       30.8507   31.2925   -0.5854 H         1 UNK         0.3010 
    116 H116       31.8130   33.6073    0.6187 H         1 UNK         0.0829 
    117 H117       32.9165   33.9829   -1.5997 H         1 UNK         0.0813 
    118 H118       32.6332   32.3036   -2.0344 H         1 UNK         0.0813 
    119 H119       31.2731   33.4021   -1.7928 H         1 UNK         0.0813 
    120 H120       33.3509   30.5490    0.7047 H         1 UNK         0.3038 
    121 H121       36.0748   31.4164    1.1839 H         1 UNK         0.0769 
    122 H122       34.6210   28.7961    1.8464 H         1 UNK         0.0811 
    123 H123       36.3580   29.0465    1.9261 H         1 UNK         0.0811 
    124 H124       35.5395   29.1215    0.3763 H         1 UNK         0.0811 
    125 H125       33.2770   31.8533    2.9914 H         1 UNK         0.3204 
    126 H126       32.8049   32.6774    4.9701 H         1 UNK         0.0748 
    127 H127       34.4664   33.5873    6.5243 H         1 UNK         0.0771 
    128 H128       35.7805   32.7746    5.6941 H         1 UNK         0.0771 
    129 H129       34.8887   34.0642    4.8874 H         1 UNK         0.0771 
    130 H130       32.2637   30.2025    4.5545 H         1 UNK         0.2980 
    131 H131       33.3218   28.3199    6.4314 H         1 UNK         0.0545 
    132 H132       30.4185   30.1991    8.5422 H         1 UNK         0.3459 
    133 H133       31.0094   30.8747    7.0454 H         1 UNK         0.3459 
    134 H134       30.7528   28.2189    4.7941 H         1 UNK         0.0616 
    135 H135       31.4000   26.8694    5.6822 H         1 UNK         0.0616 
    136 H136       34.3245   25.5965    3.6694 H         1 UNK         0.0634 
    137 H137       33.6509   25.7719    5.2680 H         1 UNK         0.0634 
@<TRIPOS>BOND
     1    1    2 1    
     2    1   72 1    
     3    1   73 1    
     4    1   74 1    
     5    2    3 2    
     6    2    4 am   BACKBONE|DICT|INTERRES
     7    4    5 1    
     8    4   75 1    
     9    5    6 1    
    10    5   35 1    
    11    5   76 1    
    12    6    7 1    
    13    6   77 1    
    14    6   78 1    
    15    7    8 1    
    16    8    9 1    
    17    8   79 1    
    18    8   80 1    
    19    9   10 ar   
    20    9   14 ar   
    21   10   11 ar   
    22   10   81 1    
    23   11   12 ar   
    24   11   71 1    
    25   12   13 ar   
    26   12   82 1    
    27   13   14 ar   
    28   13   15 1    
    29   14   83 1    
    30   15   16 1    
    31   15   84 1    
    32   15   85 1    
    33   16   17 1    
    34   17   18 1    
    35   17   86 1    
    36   17   87 1    
    37   18   19 1    
    38   18   37 1    
    39   18   88 1    
    40   19   20 am   BACKBONE|DICT|INTERRES
    41   19   89 1    
    42   20   21 2    
    43   20   22 1    
    44   22   23 1    
    45   22   24 1    
    46   22   90 1    
    47   23   91 1    
    48   23   92 1    
    49   23   93 1    
    50   24   25 am   BACKBONE|DICT|INTERRES
    51   24   94 1    
    52   25   26 2    
    53   25   27 1    
    54   27   28 1    
    55   27   29 1    
    56   27   95 1    
    57   28   96 1    
    58   28   97 1    
    59   28   98 1    
    60   29   30 am   BACKBONE|DICT|INTERRES
    61   29   99 1    
    62   30   31 2    
    63   30   32 1    
    64   32   33 1    
    65   32   34 1    
    66   32  100 1    
    67   33  101 1    
    68   33  102 1    
    69   33  103 1    
    70   34   35 am   BACKBONE|DICT|INTERRES
    71   34  104 1    
    72   35   36 2    
    73   37   38 2    
    74   37   39 am   BACKBONE|DICT|INTERRES
    75   39   40 1    
    76   39  105 1    
    77   40   41 1    
    78   40   42 1    
    79   40  106 1    
    80   41  107 1    
    81   41  108 1    
    82   41  109 1    
    83   42   43 2    
    84   42   44 am   BACKBONE|DICT|INTERRES
    85   44   45 1    
    86   44  110 1    
    87   45   46 1    
    88   45   47 1    
    89   45  111 1    
    90   46  112 1    
    91   46  113 1    
    92   46  114 1    
    93   47   48 2    
    94   47   49 am   BACKBONE|DICT|INTERRES
    95   49   50 1    
    96   49  115 1    
    97   50   51 1    
    98   50   52 1    
    99   50  116 1    
   100   51  117 1    
   101   51  118 1    
   102   51  119 1    
   103   52   53 2    
   104   52   54 am   BACKBONE|DICT|INTERRES
   105   54   55 1    
   106   54  120 1    
   107   55   56 1    
   108   55   57 1    
   109   55  121 1    
   110   56  122 1    
   111   56  123 1    
   112   56  124 1    
   113   57   58 2    
   114   57   59 am   BACKBONE|DICT|INTERRES
   115   59   60 1    
   116   59  125 1    
   117   60   61 1    
   118   60   62 1    
   119   60  126 1    
   120   61  127 1    
   121   61  128 1    
   122   61  129 1    
   123   62   63 2    
   124   62   64 am   BACKBONE|DICT|INTERRES
   125   64   65 1    
   126   64  130 1    
   127   65   66 1    
   128   65   69 1    
   129   65  131 1    
   130   66   67 am   BACKBONE|DICT|INTERRES
   131   66   68 2    
   132   67  132 1    
   133   67  133 1    
   134   69   70 1    
   135   69  134 1    
   136   69  135 1    
   137   70   71 1    
   138   71  136 1    
   139   71  137 1    
@<TRIPOS>SUBSTRUCTURE
     1 UNK         1 GROUP             0       ****    0 ROOT    
