@<TRIPOS>MOLECULE
3R136
137   139    1
SMALL
USER_CHARGES


@<TRIPOS>ATOM
      1 CA         31.4535   26.9033   -4.6744 C.3       0 UNK        -0.1979 
      2 C          31.1931   27.0569   -3.1831 C.2       0 UNK         0.4864 
      3 O          31.8595   27.8580   -2.5290 O.2       0 UNK        -0.5359 
      4 N          30.2281   26.3004   -2.6500 N.am      1 UNK        -0.4318 
      5 CA         29.8195   26.3227   -1.2419 C.3       1 UNK         0.0824 
      6 C6         30.7495   25.4940   -0.3162 C.3       12 UNK        -0.0944 
      7 S7         30.7987   23.7032   -0.6756 S.3       12 UNK        -0.2672 
      8 C8         32.1772   23.1615    0.3849 C.3       12 UNK         0.0333 
      9 C9         31.9692   23.5034    1.8561 C.ar      12 UNK        -0.0807 
     10 C10        32.9268   24.2612    2.5378 C.ar      12 UNK        -0.0894 
     11 C11        32.7607   24.5679    3.8913 C.ar      12 UNK        -0.0804 
     12 C12        31.6216   24.1152    4.5626 C.ar      12 UNK        -0.0824 
     13 C13        30.6516   23.3627    3.8926 C.ar      12 UNK        -0.0762 
     14 C14        30.8355   23.0515    2.5417 C.ar      12 UNK        -0.0782 
     15 C15        29.4171   22.8711    4.6391 C.3       12 UNK         0.0230 
     16 S16        27.8810   23.6928    4.0986 S.3       12 UNK        -0.2608 
     17 C17        28.2583   25.4594    4.3607 C.3       12 UNK        -0.0989 
     18 CA         28.1832   26.2444    3.0244 C.3       5 UNK         0.0716 
     19 N          26.8316   26.3479    2.4564 N.am      5 UNK        -0.4135 
     20 C          25.7392   26.8971    3.0095 C.2       4 UNK         0.5031 
     21 O          25.7116   27.3962    4.1358 O.2       4 UNK        -0.5229 
     22 CA         24.4664   26.9350    2.1498 C.3       4 UNK         0.0329 
     23 CB         24.4684   28.1870    1.2566 C.3       4 UNK        -0.2001 
     24 N          24.3070   25.7451    1.3153 N.am      4 UNK        -0.4303 
     25 C          24.0415   24.5116    1.7722 C.2       3 UNK         0.5044 
     26 O          23.8260   24.2508    2.9561 O.2       3 UNK        -0.5152 
     27 CA         23.9996   23.3750    0.7317 C.3       3 UNK         0.0319 
     28 CB         22.5458   23.0001    0.4006 C.3       3 UNK        -0.2001 
     29 N          24.7043   23.7083   -0.5107 N.am      3 UNK        -0.4354 
     30 C          26.0351   23.8200   -0.6203 C.2       2 UNK         0.4964 
     31 O          26.8145   23.5394    0.2920 O.2       2 UNK        -0.5047 
     32 CA         26.5750   24.3348   -1.9708 C.3       2 UNK         0.0288 
     33 CB         25.6346   25.3542   -2.6565 C.3       2 UNK        -0.2113 
     34 N          27.9299   24.8899   -1.8665 N.am      2 UNK        -0.4145 
     35 C          28.3343   25.9324   -1.1191 C.2       1 UNK         0.5006 
     36 O          27.5887   26.5950   -0.3939 O.2       1 UNK        -0.5103 
     37 C          28.8722   27.6187    3.1207 C.2       5 UNK         0.5055 
     38 O          29.9212   27.8146    2.5090 O.2       5 UNK        -0.5220 
     39 N          28.2428   28.5629    3.8321 N.am      6 UNK        -0.4450 
     40 CA         28.6931   29.9347    4.0945 C.3       6 UNK         0.0367 
     41 CB         27.7605   30.5622    5.1442 C.3       6 UNK        -0.1929 
     42 C          28.8292   30.8466    2.8574 C.2       6 UNK         0.5070 
     43 O          29.2240   32.0033    3.0069 O.2       6 UNK        -0.5237 
     44 N          28.5242   30.3284    1.6598 N.am      7 UNK        -0.4739 
     45 CA         28.8913   30.9379    0.3812 C.3       7 UNK         0.0276 
     46 CB         28.1197   30.2449   -0.7531 C.3       7 UNK        -0.1927 
     47 C          30.4122   30.8911    0.1257 C.2       7 UNK         0.5013 
     48 O          30.9213   31.7578   -0.5864 O.2       7 UNK        -0.5193 
     49 N          31.1102   29.9106    0.7199 N.am      8 UNK        -0.4253 
     50 CA         32.5706   29.8481    0.7591 C.3       8 UNK         0.0242 
     51 CB         33.0171   28.3841    0.8789 C.3       8 UNK        -0.2000 
     52 C          33.1120   30.6878    1.9274 C.2       8 UNK         0.4948 
     53 O          32.4553   30.8012    2.9662 O.2       8 UNK        -0.5275 
     54 N          34.3082   31.2594    1.7343 N.am      9 UNK        -0.4246 
     55 CA         34.9811   32.1493    2.6833 C.3       9 UNK         0.0261 
     56 CB         36.2787   32.6816    2.0522 C.3       9 UNK        -0.1959 
     57 C          35.2700   31.4668    4.0313 C.2       9 UNK         0.5033 
     58 O          35.9581   30.4447    4.0582 O.2       9 UNK        -0.5390 
     59 N          34.7366   32.0584    5.1096 N.am      10 UNK        -0.4215 
     60 CA         34.8474   31.6492    6.5176 C.3       10 UNK         0.0240 
     61 CB         36.3181   31.6760    6.9882 C.3       10 UNK        -0.1982 
     62 C          34.1490   30.3200    6.8784 C.2       10 UNK         0.4970 
     63 O          34.2919   29.8687    8.0165 O.2       10 UNK        -0.4916 
     64 N          33.3950   29.7253    5.9460 N.am      11 UNK        -0.4279 
     65 CA         32.5881   28.5189    6.1769 C.3       11 UNK         0.1003 
     66 C          31.2623   28.8275    6.9264 C.2       11 UNK         0.5709 
     67 N          30.6155   27.8100    7.4797 N.am      11 UNK        -0.7358 
     68 O          30.8031   29.9659    7.0021 O.2       11 UNK        -0.4999 
     69 C69        32.3327   27.7554    4.8547 C.3       12 UNK        -0.0954 
     70 S70        33.8767   27.1079    4.1315 S.3       12 UNK        -0.2268 
     71 C71        33.8284   25.3600    4.6347 C.3       12 UNK         0.0203 
     72 H72        30.7877   26.1740   -5.1335 H         1 UNK         0.0888 
     73 H73        31.3113   27.8571   -5.1802 H         1 UNK         0.0888 
     74 H74        32.4789   26.5783   -4.8431 H         1 UNK         0.0888 
     75 H75        29.6866   25.7003   -3.2544 H         1 UNK         0.3017 
     76 H76        29.8803   27.3588   -0.9016 H         1 UNK         0.0873 
     77 H77        31.7682   25.8729   -0.3907 H         1 UNK         0.0745 
     78 H78        30.4619   25.6360    0.7259 H         1 UNK         0.0745 
     79 H79        32.2937   22.0816    0.2861 H         1 UNK         0.0705 
     80 H80        33.0999   23.6061    0.0086 H         1 UNK         0.0705 
     81 H81        33.8089   24.6119    2.0193 H         1 UNK         0.1334 
     82 H82        31.4917   24.3463    5.6109 H         1 UNK         0.1417 
     83 H83        30.0888   22.4679    2.0198 H         1 UNK         0.1562 
     84 H84        29.5320   23.0143    5.7147 H         1 UNK         0.0748 
     85 H85        29.3119   21.7961    4.4866 H         1 UNK         0.0748 
     86 H86        29.2468   25.5569    4.8105 H         1 UNK         0.0940 
     87 H87        27.5646   25.8591    5.1011 H         1 UNK         0.0940 
     88 H88        28.7553   25.6791    2.2878 H         1 UNK         0.0703 
     89 H89        26.7655   26.0368    1.4937 H         1 UNK         0.3081 
     90 H90        23.6098   26.9940    2.8248 H         1 UNK         0.0719 
     91 H91        24.5718   29.0932    1.8554 H         1 UNK         0.0809 
     92 H92        25.2922   28.1742    0.5411 H         1 UNK         0.0809 
     93 H93        23.5379   28.2763    0.6958 H         1 UNK         0.0809 
     94 H94        24.4586   25.8611    0.3246 H         1 UNK         0.2990 
     95 H95        24.4849   22.5046    1.1790 H         1 UNK         0.0690 
     96 H96        22.5001   22.1514   -0.2822 H         1 UNK         0.0788 
     97 H97        22.0075   23.8310   -0.0573 H         1 UNK         0.0788 
     98 H98        22.0011   22.7170    1.3026 H         1 UNK         0.0788 
     99 H99        24.1313   23.9318   -1.3120 H         1 UNK         0.2993 
    100 H100       26.6534   23.4599   -2.6182 H         1 UNK         0.0949 
    101 H101       25.4151   26.2055   -2.0109 H         1 UNK         0.0767 
    102 H102       26.0809   25.7438   -3.5717 H         1 UNK         0.0767 
    103 H103       24.6855   24.9000   -2.9428 H         1 UNK         0.0767 
    104 H104       28.6475   24.3401   -2.3170 H         1 UNK         0.3013 
    105 H105       27.3378   28.3036    4.2201 H         1 UNK         0.3121 
    106 H106       29.6939   29.8667    4.5234 H         1 UNK         0.0774 
    107 H107       26.7362   30.6390    4.7776 H         1 UNK         0.0815 
    108 H108       27.7483   29.9754    6.0629 H         1 UNK         0.0815 
    109 H109       28.0896   31.5668    5.4134 H         1 UNK         0.0815 
    110 H110       28.2091   29.3700    1.6309 H         1 UNK         0.2987 
    111 H111       28.5950   31.9890    0.4045 H         1 UNK         0.0949 
    112 H112       27.0424   30.3376   -0.6151 H         1 UNK         0.0806 
    113 H113       28.3626   30.6908   -1.7186 H         1 UNK         0.0806 
    114 H114       28.3583   29.1840   -0.8156 H         1 UNK         0.0806 
    115 H115       30.6250   29.2684    1.3401 H         1 UNK         0.3010 
    116 H116       32.9739   30.2491   -0.1736 H         1 UNK         0.0829 
    117 H117       32.4832   27.8600    1.6713 H         1 UNK         0.0813 
    118 H118       32.8398   27.8509   -0.0526 H         1 UNK         0.0813 
    119 H119       34.0838   28.3067    1.0934 H         1 UNK         0.0813 
    120 H120       34.7967   31.0784    0.8695 H         1 UNK         0.3038 
    121 H121       34.3174   33.0000    2.8524 H         1 UNK         0.0769 
    122 H122       36.9724   31.8741    1.8141 H         1 UNK         0.0811 
    123 H123       36.0783   33.2351    1.1346 H         1 UNK         0.0811 
    124 H124       36.7931   33.3613    2.7331 H         1 UNK         0.0811 
    125 H125       34.1621   32.8758    4.9527 H         1 UNK         0.3204 
    126 H126       34.3152   32.4149    7.0838 H         1 UNK         0.0748 
    127 H127       36.9078   30.8863    6.5218 H         1 UNK         0.0771 
    128 H128       36.7920   32.6301    6.7575 H         1 UNK         0.0771 
    129 H129       36.3880   31.5356    8.0675 H         1 UNK         0.0771 
    130 H130       33.2945   30.1576    5.0368 H         1 UNK         0.2980 
    131 H131       33.1598   27.8576    6.8312 H         1 UNK         0.0545 
    132 H132       30.9844   26.8735    7.4458 H         1 UNK         0.3459 
    133 H133       29.7539   27.9910    7.9697 H         1 UNK         0.3459 
    134 H134       31.8697   28.4191    4.1245 H         1 UNK         0.0616 
    135 H135       31.6319   26.9327    4.9979 H         1 UNK         0.0616 
    136 H136       33.6807   25.3017    5.7142 H         1 UNK         0.0634 
    137 H137       34.8039   24.9141    4.4364 H         1 UNK         0.0634 
@<TRIPOS>BOND
     1    1    2 1    
     2    1   72 1    
     3    1   73 1    
     4    1   74 1    
     5    2    3 2    
     6    2    4 am   BACKBONE|DICT|INTERRES
     7    4    5 1    
     8    4   75 1    
     9    5    6 1    
    10    5   35 1    
    11    5   76 1    
    12    6    7 1    
    13    6   77 1    
    14    6   78 1    
    15    7    8 1    
    16    8    9 1    
    17    8   79 1    
    18    8   80 1    
    19    9   10 ar   
    20    9   14 ar   
    21   10   11 ar   
    22   10   81 1    
    23   11   12 ar   
    24   11   71 1    
    25   12   13 ar   
    26   12   82 1    
    27   13   14 ar   
    28   13   15 1    
    29   14   83 1    
    30   15   16 1    
    31   15   84 1    
    32   15   85 1    
    33   16   17 1    
    34   17   18 1    
    35   17   86 1    
    36   17   87 1    
    37   18   19 1    
    38   18   37 1    
    39   18   88 1    
    40   19   20 am   BACKBONE|DICT|INTERRES
    41   19   89 1    
    42   20   21 2    
    43   20   22 1    
    44   22   23 1    
    45   22   24 1    
    46   22   90 1    
    47   23   91 1    
    48   23   92 1    
    49   23   93 1    
    50   24   25 am   BACKBONE|DICT|INTERRES
    51   24   94 1    
    52   25   26 2    
    53   25   27 1    
    54   27   28 1    
    55   27   29 1    
    56   27   95 1    
    57   28   96 1    
    58   28   97 1    
    59   28   98 1    
    60   29   30 am   BACKBONE|DICT|INTERRES
    61   29   99 1    
    62   30   31 2    
    63   30   32 1    
    64   32   33 1    
    65   32   34 1    
    66   32  100 1    
    67   33  101 1    
    68   33  102 1    
    69   33  103 1    
    70   34   35 am   BACKBONE|DICT|INTERRES
    71   34  104 1    
    72   35   36 2    
    73   37   38 2    
    74   37   39 am   BACKBONE|DICT|INTERRES
    75   39   40 1    
    76   39  105 1    
    77   40   41 1    
    78   40   42 1    
    79   40  106 1    
    80   41  107 1    
    81   41  108 1    
    82   41  109 1    
    83   42   43 2    
    84   42   44 am   BACKBONE|DICT|INTERRES
    85   44   45 1    
    86   44  110 1    
    87   45   46 1    
    88   45   47 1    
    89   45  111 1    
    90   46  112 1    
    91   46  113 1    
    92   46  114 1    
    93   47   48 2    
    94   47   49 am   BACKBONE|DICT|INTERRES
    95   49   50 1    
    96   49  115 1    
    97   50   51 1    
    98   50   52 1    
    99   50  116 1    
   100   51  117 1    
   101   51  118 1    
   102   51  119 1    
   103   52   53 2    
   104   52   54 am   BACKBONE|DICT|INTERRES
   105   54   55 1    
   106   54  120 1    
   107   55   56 1    
   108   55   57 1    
   109   55  121 1    
   110   56  122 1    
   111   56  123 1    
   112   56  124 1    
   113   57   58 2    
   114   57   59 am   BACKBONE|DICT|INTERRES
   115   59   60 1    
   116   59  125 1    
   117   60   61 1    
   118   60   62 1    
   119   60  126 1    
   120   61  127 1    
   121   61  128 1    
   122   61  129 1    
   123   62   63 2    
   124   62   64 am   BACKBONE|DICT|INTERRES
   125   64   65 1    
   126   64  130 1    
   127   65   66 1    
   128   65   69 1    
   129   65  131 1    
   130   66   67 am   BACKBONE|DICT|INTERRES
   131   66   68 2    
   132   67  132 1    
   133   67  133 1    
   134   69   70 1    
   135   69  134 1    
   136   69  135 1    
   137   70   71 1    
   138   71  136 1    
   139   71  137 1    
@<TRIPOS>SUBSTRUCTURE
     1 UNK         1 GROUP             0       ****    0 ROOT    
