@<TRIPOS>MOLECULE
3R136
137   139    1
SMALL
USER_CHARGES


@<TRIPOS>ATOM
      1 CA         27.8721   19.6589   -0.2967 C.3       0 UNK        -0.1979 
      2 C          28.2884   20.7126   -1.3126 C.2       0 UNK         0.4864 
      3 O          28.1060   20.5105   -2.5145 O.2       0 UNK        -0.5359 
      4 N          28.8521   21.8305   -0.8386 N.am      1 UNK        -0.4318 
      5 CA         29.2288   22.9906   -1.6506 C.3       1 UNK         0.0824 
      6 C6         30.3156   23.8528   -0.9552 C.3       12 UNK        -0.0944 
      7 S7         29.8755   24.4493    0.7159 S.3       12 UNK        -0.2672 
      8 C8         30.6150   23.1830    1.7924 C.3       12 UNK         0.0333 
      9 C9         31.3895   23.8135    2.9383 C.ar      12 UNK        -0.0807 
     10 C10        32.7310   24.1659    2.7614 C.ar      12 UNK        -0.0894 
     11 C11        33.4738   24.6906    3.8229 C.ar      12 UNK        -0.0804 
     12 C12        32.8587   24.8704    5.0655 C.ar      12 UNK        -0.0824 
     13 C13        31.5125   24.5424    5.2503 C.ar      12 UNK        -0.0762 
     14 C14        30.7814   24.0119    4.1824 C.ar      12 UNK        -0.0782 
     15 C15        30.8701   24.7319    6.6173 C.3       12 UNK         0.0230 
     16 S16        30.1571   26.3973    6.8110 S.3       12 UNK        -0.2608 
     17 C17        28.5380   26.2190    5.9885 C.3       12 UNK        -0.0989 
     18 CA         28.4793   26.9170    4.6037 C.3       5 UNK         0.0716 
     19 N          27.5789   26.1920    3.6973 N.am      5 UNK        -0.4135 
     20 C          27.3587   26.4527    2.4008 C.2       4 UNK         0.5031 
     21 O          27.8853   27.3889    1.7945 O.2       4 UNK        -0.5229 
     22 CA         26.3948   25.4798    1.6872 C.3       4 UNK         0.0329 
     23 CB         25.1991   25.0612    2.5746 C.3       4 UNK        -0.2001 
     24 N          25.9053   25.9420    0.3844 N.am      4 UNK        -0.4303 
     25 C          25.1697   27.0336    0.1195 C.2       3 UNK         0.5044 
     26 O          24.8697   27.8802    0.9641 O.2       3 UNK        -0.5152 
     27 CA         24.5961   27.1525   -1.3130 C.3       3 UNK         0.0319 
     28 CB         24.4078   28.6046   -1.8010 C.3       3 UNK        -0.2001 
     29 N          25.2874   26.3395   -2.3227 N.am      3 UNK        -0.4354 
     30 C          26.5557   26.4647   -2.7402 C.2       2 UNK         0.4964 
     31 O          27.3374   27.3377   -2.3616 O.2       2 UNK        -0.5047 
     32 CA         27.0432   25.3964   -3.7341 C.3       2 UNK         0.0288 
     33 CB         27.5505   26.0413   -5.0353 C.3       2 UNK        -0.2113 
     34 N          28.1010   24.5581   -3.1627 N.am      2 UNK        -0.4145 
     35 C          27.9848   23.8124   -2.0536 C.2       1 UNK         0.5006 
     36 O          26.9576   23.7595   -1.3681 O.2       1 UNK        -0.5103 
     37 C          28.1450   28.4215    4.7393 C.2       5 UNK         0.5055 
     38 O          29.0369   29.2195    5.0256 O.2       5 UNK        -0.5220 
     39 N          26.8726   28.7859    4.5170 N.am      6 UNK        -0.4450 
     40 CA         26.3940   30.1686    4.4786 C.3       6 UNK         0.0367 
     41 CB         24.8577   30.1743    4.4272 C.3       6 UNK        -0.1929 
     42 C          26.9753   30.9712    3.3012 C.2       6 UNK         0.5070 
     43 O          27.2578   32.1582    3.4662 O.2       6 UNK        -0.5237 
     44 N          27.1501   30.3169    2.1446 N.am      7 UNK        -0.4739 
     45 CA         27.7894   30.9000    0.9659 C.3       7 UNK         0.0276 
     46 CB         27.2184   30.2591   -0.3025 C.3       7 UNK        -0.1927 
     47 C          29.3124   30.7405    1.0248 C.2       7 UNK         0.5013 
     48 O          30.0281   31.6980    0.7283 O.2       7 UNK        -0.5193 
     49 N          29.7936   29.5670    1.4610 N.am      8 UNK        -0.4253 
     50 CA         31.2140   29.2603    1.6739 C.3       8 UNK         0.0242 
     51 CB         31.4195   27.7349    1.6213 C.3       8 UNK        -0.2000 
     52 C          31.7830   29.8939    2.9632 C.2       8 UNK         0.4948 
     53 O          32.5362   29.2467    3.6908 O.2       8 UNK        -0.5275 
     54 N          31.4470   31.1677    3.2127 N.am      9 UNK        -0.4246 
     55 CA         31.8320   31.9483    4.3934 C.3       9 UNK         0.0261 
     56 CB         31.0993   33.2987    4.3636 C.3       9 UNK        -0.1959 
     57 C          33.3500   32.1550    4.5418 C.2       9 UNK         0.5033 
     58 O          33.8254   32.3566    5.6605 O.2       9 UNK        -0.5390 
     59 N          34.0891   32.0514    3.4271 N.am      10 UNK        -0.4215 
     60 CA         35.5535   32.0517    3.3654 C.3       10 UNK         0.0240 
     61 CB         35.9940   32.0083    1.8930 C.3       10 UNK        -0.1982 
     62 C          36.2169   30.9085    4.1595 C.2       10 UNK         0.4970 
     63 O          37.3802   31.0493    4.5393 O.2       10 UNK        -0.4916 
     64 N          35.4776   29.8199    4.4170 N.am      11 UNK        -0.4279 
     65 CA         35.8862   28.7335    5.3183 C.3       11 UNK         0.1003 
     66 C          35.8686   29.1180    6.8288 C.2       11 UNK         0.5709 
     67 N          35.2974   30.2474    7.2354 N.am      11 UNK        -0.7358 
     68 O          36.3980   28.3754    7.6524 O.2       11 UNK        -0.4999 
     69 C69        35.0582   27.4471    5.0716 C.3       12 UNK        -0.0954 
     70 S70        35.2222   26.8054    3.3708 S.3       12 UNK        -0.2268 
     71 C71        34.9481   25.0252    3.6345 C.3       12 UNK         0.0203 
     72 H72        28.1068   19.9608    0.7240 H         1 UNK         0.0888 
     73 H73        26.7987   19.4819   -0.3592 H         1 UNK         0.0888 
     74 H74        28.3855   18.7192   -0.4986 H         1 UNK         0.0888 
     75 H75        28.9278   21.9660    0.1579 H         1 UNK         0.3017 
     76 H76        29.6669   22.6103   -2.5765 H         1 UNK         0.0873 
     77 H77        31.2489   23.2908   -0.9030 H         1 UNK         0.0745 
     78 H78        30.5519   24.7265   -1.5655 H         1 UNK         0.0745 
     79 H79        29.8221   22.5428    2.1814 H         1 UNK         0.0705 
     80 H80        31.2785   22.5286    1.2258 H         1 UNK         0.0705 
     81 H81        33.2005   24.0157    1.7987 H         1 UNK         0.1334 
     82 H82        33.4285   25.2641    5.8952 H         1 UNK         0.1417 
     83 H83        29.7442   23.7407    4.3221 H         1 UNK         0.1562 
     84 H84        31.6216   24.5883    7.3952 H         1 UNK         0.0748 
     85 H85        30.1113   23.9690    6.7973 H         1 UNK         0.0748 
     86 H86        27.7611   26.5951    6.6577 H         1 UNK         0.0940 
     87 H87        28.3287   25.1532    5.8899 H         1 UNK         0.0940 
     88 H88        29.4679   26.8550    4.1468 H         1 UNK         0.0703 
     89 H89        27.0903   25.4070    4.1011 H         1 UNK         0.3081 
     90 H90        26.9757   24.5819    1.4739 H         1 UNK         0.0719 
     91 H91        24.6379   25.9255    2.9326 H         1 UNK         0.0809 
     92 H92        24.5060   24.4250    2.0236 H         1 UNK         0.0809 
     93 H93        25.5176   24.4879    3.4455 H         1 UNK         0.0809 
     94 H94        26.1340   25.3261   -0.3897 H         1 UNK         0.2990 
     95 H95        23.5965   26.7229   -1.2341 H         1 UNK         0.0690 
     96 H96        23.7862   28.6354   -2.6956 H         1 UNK         0.0788 
     97 H97        25.3556   29.0788   -2.0486 H         1 UNK         0.0788 
     98 H98        23.9145   29.2217   -1.0491 H         1 UNK         0.0788 
     99 H99        24.7490   25.5634   -2.6837 H         1 UNK         0.2993 
    100 H100       26.2076   24.7404   -3.9878 H         1 UNK         0.0949 
    101 H101       26.7783   26.6654   -5.4873 H         1 UNK         0.0767 
    102 H102       28.4202   26.6762   -4.8596 H         1 UNK         0.0767 
    103 H103       27.8280   25.2869   -5.7719 H         1 UNK         0.0767 
    104 H104       28.9853   24.5674   -3.6496 H         1 UNK         0.3013 
    105 H105       26.2023   28.0677    4.2858 H         1 UNK         0.3121 
    106 H106       26.7093   30.6592    5.4022 H         1 UNK         0.0774 
    107 H107       24.4729   31.1951    4.4165 H         1 UNK         0.0815 
    108 H108       24.4816   29.6755    3.5324 H         1 UNK         0.0815 
    109 H109       24.4281   29.6769    5.2968 H         1 UNK         0.0815 
    110 H110       26.9244   29.3296    2.0937 H         1 UNK         0.2987 
    111 H111       27.5685   31.9693    0.9250 H         1 UNK         0.0949 
    112 H112       27.3703   29.1791   -0.3154 H         1 UNK         0.0806 
    113 H113       26.1491   30.4523   -0.3763 H         1 UNK         0.0806 
    114 H114       27.6878   30.6674   -1.1984 H         1 UNK         0.0806 
    115 H115       29.1309   28.8239    1.6729 H         1 UNK         0.3010 
    116 H116       31.7802   29.6891    0.8446 H         1 UNK         0.0829 
    117 H117       31.0527   27.3173    0.6837 H         1 UNK         0.0813 
    118 H118       32.4761   27.4748    1.6989 H         1 UNK         0.0813 
    119 H119       30.9041   27.2270    2.4351 H         1 UNK         0.0813 
    120 H120       30.8590   31.6307    2.5271 H         1 UNK         0.3038 
    121 H121       31.4944   31.3930    5.2712 H         1 UNK         0.0769 
    122 H122       31.3741   33.8882    3.4880 H         1 UNK         0.0811 
    123 H123       31.3389   33.8929    5.2467 H         1 UNK         0.0811 
    124 H124       30.0174   33.1615    4.3506 H         1 UNK         0.0811 
    125 H125       33.6003   31.8874    2.5593 H         1 UNK         0.3204 
    126 H126       35.8993   32.9910    3.8018 H         1 UNK         0.0748 
    127 H127       35.6046   32.8605    1.3355 H         1 UNK         0.0771 
    128 H128       37.0814   32.0397    1.8096 H         1 UNK         0.0771 
    129 H129       35.6557   31.0972    1.3974 H         1 UNK         0.0771 
    130 H130       34.5247   29.7632    4.0735 H         1 UNK         0.2980 
    131 H131       36.9266   28.4962    5.0881 H         1 UNK         0.0545 
    132 H132       35.3062   30.4723    8.2172 H         1 UNK         0.3459 
    133 H133       34.8539   30.8820    6.5804 H         1 UNK         0.3459 
    134 H134       34.0011   27.6272    5.2745 H         1 UNK         0.0616 
    135 H135       35.3766   26.6650    5.7628 H         1 UNK         0.0616 
    136 H136       35.3449   24.4870    2.7724 H         1 UNK         0.0634 
    137 H137       35.5257   24.6807    4.4934 H         1 UNK         0.0634 
@<TRIPOS>BOND
     1    1    2 1    
     2    1   72 1    
     3    1   73 1    
     4    1   74 1    
     5    2    3 2    
     6    2    4 am   BACKBONE|DICT|INTERRES
     7    4    5 1    
     8    4   75 1    
     9    5    6 1    
    10    5   35 1    
    11    5   76 1    
    12    6    7 1    
    13    6   77 1    
    14    6   78 1    
    15    7    8 1    
    16    8    9 1    
    17    8   79 1    
    18    8   80 1    
    19    9   10 ar   
    20    9   14 ar   
    21   10   11 ar   
    22   10   81 1    
    23   11   12 ar   
    24   11   71 1    
    25   12   13 ar   
    26   12   82 1    
    27   13   14 ar   
    28   13   15 1    
    29   14   83 1    
    30   15   16 1    
    31   15   84 1    
    32   15   85 1    
    33   16   17 1    
    34   17   18 1    
    35   17   86 1    
    36   17   87 1    
    37   18   19 1    
    38   18   37 1    
    39   18   88 1    
    40   19   20 am   BACKBONE|DICT|INTERRES
    41   19   89 1    
    42   20   21 2    
    43   20   22 1    
    44   22   23 1    
    45   22   24 1    
    46   22   90 1    
    47   23   91 1    
    48   23   92 1    
    49   23   93 1    
    50   24   25 am   BACKBONE|DICT|INTERRES
    51   24   94 1    
    52   25   26 2    
    53   25   27 1    
    54   27   28 1    
    55   27   29 1    
    56   27   95 1    
    57   28   96 1    
    58   28   97 1    
    59   28   98 1    
    60   29   30 am   BACKBONE|DICT|INTERRES
    61   29   99 1    
    62   30   31 2    
    63   30   32 1    
    64   32   33 1    
    65   32   34 1    
    66   32  100 1    
    67   33  101 1    
    68   33  102 1    
    69   33  103 1    
    70   34   35 am   BACKBONE|DICT|INTERRES
    71   34  104 1    
    72   35   36 2    
    73   37   38 2    
    74   37   39 am   BACKBONE|DICT|INTERRES
    75   39   40 1    
    76   39  105 1    
    77   40   41 1    
    78   40   42 1    
    79   40  106 1    
    80   41  107 1    
    81   41  108 1    
    82   41  109 1    
    83   42   43 2    
    84   42   44 am   BACKBONE|DICT|INTERRES
    85   44   45 1    
    86   44  110 1    
    87   45   46 1    
    88   45   47 1    
    89   45  111 1    
    90   46  112 1    
    91   46  113 1    
    92   46  114 1    
    93   47   48 2    
    94   47   49 am   BACKBONE|DICT|INTERRES
    95   49   50 1    
    96   49  115 1    
    97   50   51 1    
    98   50   52 1    
    99   50  116 1    
   100   51  117 1    
   101   51  118 1    
   102   51  119 1    
   103   52   53 2    
   104   52   54 am   BACKBONE|DICT|INTERRES
   105   54   55 1    
   106   54  120 1    
   107   55   56 1    
   108   55   57 1    
   109   55  121 1    
   110   56  122 1    
   111   56  123 1    
   112   56  124 1    
   113   57   58 2    
   114   57   59 am   BACKBONE|DICT|INTERRES
   115   59   60 1    
   116   59  125 1    
   117   60   61 1    
   118   60   62 1    
   119   60  126 1    
   120   61  127 1    
   121   61  128 1    
   122   61  129 1    
   123   62   63 2    
   124   62   64 am   BACKBONE|DICT|INTERRES
   125   64   65 1    
   126   64  130 1    
   127   65   66 1    
   128   65   69 1    
   129   65  131 1    
   130   66   67 am   BACKBONE|DICT|INTERRES
   131   66   68 2    
   132   67  132 1    
   133   67  133 1    
   134   69   70 1    
   135   69  134 1    
   136   69  135 1    
   137   70   71 1    
   138   71  136 1    
   139   71  137 1    
@<TRIPOS>SUBSTRUCTURE
     1 UNK         1 GROUP             0       ****    0 ROOT    
