@<TRIPOS>MOLECULE
3R136
137   139    1
SMALL
USER_CHARGES


@<TRIPOS>ATOM
      1 CA         28.8175   18.8364    2.7870 C.3       0 UNK        -0.1979 
      2 C          28.6209   20.2763    2.3369 C.2       0 UNK         0.4864 
      3 O          28.0911   21.0848    3.1016 O.2       0 UNK        -0.5359 
      4 N          29.0331   20.5935    1.1004 N.am      1 UNK        -0.4318 
      5 CA         28.9810   21.9027    0.4284 C.3       1 UNK         0.0824 
      6 C6         29.7550   23.0271    1.1640 C.3       12 UNK        -0.0944 
      7 S7         31.5456   22.7005    1.2742 S.3       12 UNK        -0.2672 
      8 C8         32.2006   24.3901    1.4689 C.3       12 UNK         0.0333 
      9 C9         31.9591   24.9347    2.8711 C.ar      12 UNK        -0.0807 
     10 C10        32.9816   24.9093    3.8245 C.ar      12 UNK        -0.0894 
     11 C11        32.7679   25.4175    5.1097 C.ar      12 UNK        -0.0804 
     12 C12        31.5097   25.9286    5.4446 C.ar      12 UNK        -0.0824 
     13 C13        30.4728   25.9444    4.5066 C.ar      12 UNK        -0.0762 
     14 C14        30.7125   25.4624    3.2177 C.ar      12 UNK        -0.0782 
     15 C15        29.0839   26.4251    4.9081 C.3       12 UNK         0.0230 
     16 S16        28.5847   27.9462    4.0423 S.3       12 UNK        -0.2608 
     17 C17        27.7630   27.3112    2.5388 C.3       12 UNK        -0.0989 
     18 CA         28.4710   27.7755    1.2425 C.3       5 UNK         0.0716 
     19 N          28.1286   26.9199    0.1038 N.am      5 UNK        -0.4135 
     20 C          28.7752   26.9356   -1.0731 C.2       4 UNK         0.5031 
     21 O          29.7914   27.6014   -1.2744 O.2       4 UNK        -0.5229 
     22 CA         28.2281   26.0693   -2.2261 C.3       4 UNK         0.0329 
     23 CB         29.1944   24.9172   -2.5483 C.3       4 UNK        -0.2001 
     24 N          26.8868   25.5320   -1.9785 N.am      4 UNK        -0.4303 
     25 C          25.7617   26.2623   -2.0344 C.2       3 UNK         0.5044 
     26 O          25.7374   27.4408   -2.3899 O.2       3 UNK        -0.5152 
     27 CA         24.4387   25.5908   -1.6129 C.3       3 UNK         0.0319 
     28 CB         23.5917   25.2517   -2.8504 C.3       3 UNK        -0.2001 
     29 N          24.5890   24.3827   -0.7958 N.am      3 UNK        -0.4354 
     30 C          25.1873   24.3091    0.4013 C.2       2 UNK         0.4964 
     31 O          25.7026   25.2740    0.9684 O.2       2 UNK        -0.5047 
     32 CA         25.2861   22.9146    1.0514 C.3       2 UNK         0.0288 
     33 CB         24.3881   21.8421    0.3927 C.3       2 UNK        -0.2113 
     34 N          26.6749   22.4452    1.1029 N.am      2 UNK        -0.4145 
     35 C          27.5483   22.3623    0.0886 C.2       1 UNK         0.5006 
     36 O          27.2731   22.6497   -1.0783 O.2       1 UNK        -0.5103 
     37 C          28.1594   29.2546    0.9252 C.2       5 UNK         0.5055 
     38 O          27.0508   29.5632    0.4831 O.2       5 UNK        -0.5220 
     39 N          29.1349   30.1345    1.1734 N.am      6 UNK        -0.4450 
     40 CA         28.9964   31.5878    1.0738 C.3       6 UNK         0.0367 
     41 CB         30.3600   32.1858    0.6874 C.3       6 UNK        -0.1929 
     42 C          28.5095   32.1711    2.4099 C.2       6 UNK         0.5070 
     43 O          28.5748   31.4953    3.4380 O.2       6 UNK        -0.5237 
     44 N          28.0819   33.4407    2.3933 N.am      7 UNK        -0.4739 
     45 CA         27.5804   34.1722    3.5676 C.3       7 UNK         0.0276 
     46 CB         27.0725   35.5537    3.1240 C.3       7 UNK        -0.1927 
     47 C          28.5968   34.3185    4.7188 C.2       7 UNK         0.5013 
     48 O          28.1864   34.4067    5.8763 O.2       7 UNK        -0.5193 
     49 N          29.8931   34.3195    4.3822 N.am      8 UNK        -0.4253 
     50 CA         31.0181   34.3428    5.3221 C.3       8 UNK         0.0242 
     51 CB         32.0336   35.3947    4.8373 C.3       8 UNK        -0.2000 
     52 C          31.6805   32.9570    5.4817 C.2       8 UNK         0.4948 
     53 O          32.7830   32.8897    6.0282 O.2       8 UNK        -0.5275 
     54 N          31.0131   31.8948    4.9993 N.am      9 UNK        -0.4246 
     55 CA         31.4740   30.5103    4.8260 C.3       9 UNK         0.0261 
     56 CB         32.0356   29.9066    6.1283 C.3       9 UNK        -0.1959 
     57 C          32.4527   30.3610    3.6468 C.2       9 UNK         0.5033 
     58 O          33.0890   31.3318    3.2309 O.2       9 UNK        -0.5390 
     59 N          32.5408   29.1383    3.1088 N.am      10 UNK        -0.4215 
     60 CA         33.3663   28.7961    1.9442 C.3       10 UNK         0.0240 
     61 CB         32.4554   28.3051    0.8034 C.3       10 UNK        -0.1982 
     62 C          34.4553   27.7750    2.3145 C.2       10 UNK         0.4970 
     63 O          34.7658   26.8913    1.5145 O.2       10 UNK        -0.4916 
     64 N          35.0089   27.9027    3.5269 N.am      11 UNK        -0.4279 
     65 CA         36.0190   26.9886    4.0846 C.3       11 UNK         0.1003 
     66 C          37.4340   27.0960    3.4439 C.2       11 UNK         0.5709 
     67 N          37.7336   28.1209    2.6544 N.am      11 UNK        -0.7358 
     68 O          38.2747   26.2277    3.6653 O.2       11 UNK        -0.4999 
     69 C69        36.1084   27.0845    5.6314 C.3       12 UNK        -0.0954 
     70 S70        34.5076   27.0573    6.5087 S.3       12 UNK        -0.2268 
     71 C71        33.8754   25.3868    6.1548 C.3       12 UNK         0.0203 
     72 H72        27.8559   18.3844    3.0284 H         1 UNK         0.0888 
     73 H73        29.2948   18.2290    2.0182 H         1 UNK         0.0888 
     74 H74        29.4424   18.8058    3.6791 H         1 UNK         0.0888 
     75 H75        29.4370   19.8593    0.5352 H         1 UNK         0.3017 
     76 H76        29.4750   21.7493   -0.5328 H         1 UNK         0.0873 
     77 H77        29.3661   23.1713    2.1727 H         1 UNK         0.0745 
     78 H78        29.6170   23.9777    0.6459 H         1 UNK         0.0745 
     79 H79        31.7543   25.0487    0.7227 H         1 UNK         0.0705 
     80 H80        33.2703   24.3766    1.2537 H         1 UNK         0.0705 
     81 H81        33.9434   24.4922    3.5616 H         1 UNK         0.1334 
     82 H82        31.3373   26.2985    6.4464 H         1 UNK         0.1417 
     83 H83        29.9190   25.4746    2.4876 H         1 UNK         0.1562 
     84 H84        29.0533   26.6278    5.9798 H         1 UNK         0.0748 
     85 H85        28.3542   25.6325    4.7374 H         1 UNK         0.0748 
     86 H86        26.7157   27.6212    2.5486 H         1 UNK         0.0940 
     87 H87        27.7347   26.2220    2.5825 H         1 UNK         0.0940 
     88 H88        29.5470   27.6733    1.3921 H         1 UNK         0.0703 
     89 H89        27.2772   26.3760    0.1940 H         1 UNK         0.3081 
     90 H90        28.1765   26.7117   -3.1078 H         1 UNK         0.0719 
     91 H91        29.3462   24.2612   -1.6929 H         1 UNK         0.0809 
     92 H92        28.8281   24.3097   -3.3760 H         1 UNK         0.0809 
     93 H93        30.1739   25.3005   -2.8375 H         1 UNK         0.0809 
     94 H94        26.8293   24.5588   -1.6940 H         1 UNK         0.2990 
     95 H95        23.8904   26.3203   -1.0132 H         1 UNK         0.0690 
     96 H96        22.6098   24.8706   -2.5687 H         1 UNK         0.0788 
     97 H97        24.0772   24.5030   -3.4778 H         1 UNK         0.0788 
     98 H98        23.4275   26.1366   -3.4671 H         1 UNK         0.0788 
     99 H99        24.2353   23.5249   -1.1944 H         1 UNK         0.2993 
    100 H100       24.9572   23.0376    2.0844 H         1 UNK         0.0949 
    101 H101       24.4265   20.9087    0.9546 H         1 UNK         0.0767 
    102 H102       23.3436   22.1568    0.3733 H         1 UNK         0.0767 
    103 H103       24.6911   21.6169   -0.6306 H         1 UNK         0.0767 
    104 H104       27.0200   22.1559    2.0166 H         1 UNK         0.3013 
    105 H105       29.9846   29.7999    1.5979 H         1 UNK         0.3121 
    106 H106       28.2690   31.8369    0.2980 H         1 UNK         0.0774 
    107 H107       30.2894   33.2626    0.5299 H         1 UNK         0.0815 
    108 H108       31.1116   32.0193    1.4592 H         1 UNK         0.0815 
    109 H109       30.7338   31.7515   -0.2401 H         1 UNK         0.0815 
    110 H110       28.0687   33.9380    1.5136 H         1 UNK         0.2987 
    111 H111       26.7328   33.6084    3.9639 H         1 UNK         0.0949 
    112 H112       27.8699   36.1569    2.6880 H         1 UNK         0.0806 
    113 H113       26.2739   35.4665    2.3869 H         1 UNK         0.0806 
    114 H114       26.6682   36.1114    3.9702 H         1 UNK         0.0806 
    115 H115       30.1264   34.2408    3.4026 H         1 UNK         0.3010 
    116 H116       30.6719   34.6420    6.3136 H         1 UNK         0.0829 
    117 H117       31.5689   36.3750    4.7299 H         1 UNK         0.0813 
    118 H118       32.8549   35.5059    5.5466 H         1 UNK         0.0813 
    119 H119       32.4686   35.1207    3.8753 H         1 UNK         0.0813 
    120 H120       30.1030   32.0660    4.5821 H         1 UNK         0.3038 
    121 H121       30.5759   29.9512    4.5668 H         1 UNK         0.0769 
    122 H122       32.1442   28.8263    6.0368 H         1 UNK         0.0811 
    123 H123       31.3706   30.0909    6.9719 H         1 UNK         0.0811 
    124 H124       33.0177   30.3091    6.3780 H         1 UNK         0.0811 
    125 H125       32.0373   28.3722    3.5381 H         1 UNK         0.3204 
    126 H126       33.8996   29.6752    1.5774 H         1 UNK         0.0748 
    127 H127       33.0343   28.0488   -0.0848 H         1 UNK         0.0771 
    128 H128       31.8927   27.4183    1.0909 H         1 UNK         0.0771 
    129 H129       31.7455   29.0742    0.5017 H         1 UNK         0.0771 
    130 H130       34.7077   28.6535    4.1293 H         1 UNK         0.2980 
    131 H131       35.6865   25.9773    3.8512 H         1 UNK         0.0545 
    132 H132       38.6523   28.1753    2.2437 H         1 UNK         0.3459 
    133 H133       37.0520   28.8374    2.4656 H         1 UNK         0.3459 
    134 H134       36.7230   26.2740    6.0275 H         1 UNK         0.0616 
    135 H135       36.6113   28.0099    5.9178 H         1 UNK         0.0616 
    136 H136       34.6913   24.7319    5.8458 H         1 UNK         0.0634 
    137 H137       33.4800   24.9623    7.0785 H         1 UNK         0.0634 
@<TRIPOS>BOND
     1    1    2 1    
     2    1   72 1    
     3    1   73 1    
     4    1   74 1    
     5    2    3 2    
     6    2    4 am   BACKBONE|DICT|INTERRES
     7    4    5 1    
     8    4   75 1    
     9    5    6 1    
    10    5   35 1    
    11    5   76 1    
    12    6    7 1    
    13    6   77 1    
    14    6   78 1    
    15    7    8 1    
    16    8    9 1    
    17    8   79 1    
    18    8   80 1    
    19    9   10 ar   
    20    9   14 ar   
    21   10   11 ar   
    22   10   81 1    
    23   11   12 ar   
    24   11   71 1    
    25   12   13 ar   
    26   12   82 1    
    27   13   14 ar   
    28   13   15 1    
    29   14   83 1    
    30   15   16 1    
    31   15   84 1    
    32   15   85 1    
    33   16   17 1    
    34   17   18 1    
    35   17   86 1    
    36   17   87 1    
    37   18   19 1    
    38   18   37 1    
    39   18   88 1    
    40   19   20 am   BACKBONE|DICT|INTERRES
    41   19   89 1    
    42   20   21 2    
    43   20   22 1    
    44   22   23 1    
    45   22   24 1    
    46   22   90 1    
    47   23   91 1    
    48   23   92 1    
    49   23   93 1    
    50   24   25 am   BACKBONE|DICT|INTERRES
    51   24   94 1    
    52   25   26 2    
    53   25   27 1    
    54   27   28 1    
    55   27   29 1    
    56   27   95 1    
    57   28   96 1    
    58   28   97 1    
    59   28   98 1    
    60   29   30 am   BACKBONE|DICT|INTERRES
    61   29   99 1    
    62   30   31 2    
    63   30   32 1    
    64   32   33 1    
    65   32   34 1    
    66   32  100 1    
    67   33  101 1    
    68   33  102 1    
    69   33  103 1    
    70   34   35 am   BACKBONE|DICT|INTERRES
    71   34  104 1    
    72   35   36 2    
    73   37   38 2    
    74   37   39 am   BACKBONE|DICT|INTERRES
    75   39   40 1    
    76   39  105 1    
    77   40   41 1    
    78   40   42 1    
    79   40  106 1    
    80   41  107 1    
    81   41  108 1    
    82   41  109 1    
    83   42   43 2    
    84   42   44 am   BACKBONE|DICT|INTERRES
    85   44   45 1    
    86   44  110 1    
    87   45   46 1    
    88   45   47 1    
    89   45  111 1    
    90   46  112 1    
    91   46  113 1    
    92   46  114 1    
    93   47   48 2    
    94   47   49 am   BACKBONE|DICT|INTERRES
    95   49   50 1    
    96   49  115 1    
    97   50   51 1    
    98   50   52 1    
    99   50  116 1    
   100   51  117 1    
   101   51  118 1    
   102   51  119 1    
   103   52   53 2    
   104   52   54 am   BACKBONE|DICT|INTERRES
   105   54   55 1    
   106   54  120 1    
   107   55   56 1    
   108   55   57 1    
   109   55  121 1    
   110   56  122 1    
   111   56  123 1    
   112   56  124 1    
   113   57   58 2    
   114   57   59 am   BACKBONE|DICT|INTERRES
   115   59   60 1    
   116   59  125 1    
   117   60   61 1    
   118   60   62 1    
   119   60  126 1    
   120   61  127 1    
   121   61  128 1    
   122   61  129 1    
   123   62   63 2    
   124   62   64 am   BACKBONE|DICT|INTERRES
   125   64   65 1    
   126   64  130 1    
   127   65   66 1    
   128   65   69 1    
   129   65  131 1    
   130   66   67 am   BACKBONE|DICT|INTERRES
   131   66   68 2    
   132   67  132 1    
   133   67  133 1    
   134   69   70 1    
   135   69  134 1    
   136   69  135 1    
   137   70   71 1    
   138   71  136 1    
   139   71  137 1    
@<TRIPOS>SUBSTRUCTURE
     1 UNK         1 GROUP             0       ****    0 ROOT    
