@<TRIPOS>MOLECULE
3R136
137   139    1
SMALL
USER_CHARGES


@<TRIPOS>ATOM
      1 CA         28.3912   26.6145    3.1328 C.3       0 UNK        -0.1979 
      2 C          28.1520   25.2364    2.5355 C.2       0 UNK         0.4864 
      3 O          27.7280   25.1372    1.3815 O.2       0 UNK        -0.5359 
      4 N          28.4179   24.1974    3.3397 N.am      1 UNK        -0.4318 
      5 CA         28.3404   22.7621    3.0406 C.3       1 UNK         0.0824 
      6 C6         29.5935   22.2348    2.2751 C.3       12 UNK        -0.0944 
      7 S7         29.6258   22.5288    0.4709 S.3       12 UNK        -0.2672 
      8 C8         31.3849   22.8758    0.1682 C.3       12 UNK         0.0333 
      9 C9         31.7341   24.3394    0.3971 C.ar      12 UNK        -0.0807 
     10 C10        32.4491   24.7328    1.5315 C.ar      12 UNK        -0.0894 
     11 C11        32.8273   26.0697    1.7098 C.ar      12 UNK        -0.0804 
     12 C12        32.4821   27.0142    0.7360 C.ar      12 UNK        -0.0824 
     13 C13        31.7737   26.6305   -0.4077 C.ar      12 UNK        -0.0762 
     14 C14        31.3953   25.2937   -0.5654 C.ar      12 UNK        -0.0782 
     15 C15        31.4542   27.6450   -1.5000 C.3       12 UNK         0.0230 
     16 S16        30.1552   28.8227   -1.0120 S.3       12 UNK        -0.2608 
     17 C17        28.8270   27.6918   -0.4783 C.3       12 UNK        -0.0989 
     18 CA         27.3765   28.2362   -0.5625 C.3       5 UNK         0.0716 
     19 N          26.4563   27.1524   -0.2225 N.am      5 UNK        -0.4135 
     20 C          25.1308   27.1435   -0.4015 C.2       4 UNK         0.5031 
     21 O          24.4982   28.0521   -0.9448 O.2       4 UNK        -0.5229 
     22 CA         24.4166   25.8712    0.0955 C.3       4 UNK         0.0329 
     23 CB         22.9115   25.8352   -0.2461 C.3       4 UNK        -0.2001 
     24 N          25.1027   24.6576   -0.3668 N.am      4 UNK        -0.4303 
     25 C          25.2898   24.2699   -1.6396 C.2       3 UNK         0.5044 
     26 O          24.8058   24.8435   -2.6161 O.2       3 UNK        -0.5152 
     27 CA         26.1979   23.0507   -1.8812 C.3       3 UNK         0.0319 
     28 CB         27.5812   23.5180   -2.3653 C.3       3 UNK        -0.2001 
     29 N          26.3705   22.1989   -0.7026 N.am      3 UNK        -0.4354 
     30 C          25.4257   21.4008   -0.1818 C.2       2 UNK         0.4964 
     31 O          24.3014   21.2701   -0.6665 O.2       2 UNK        -0.5047 
     32 CA         25.7874   20.6111    1.0917 C.3       2 UNK         0.0288 
     33 CB         26.0486   19.1341    0.7529 C.3       2 UNK        -0.2113 
     34 N          26.9546   21.1513    1.7944 N.am      2 UNK        -0.4145 
     35 C          26.9679   22.2981    2.4885 C.2       1 UNK         0.5006 
     36 O          25.9497   22.9603    2.7087 O.2       1 UNK        -0.5103 
     37 C          27.1497   29.4674    0.3462 C.2       5 UNK         0.5055 
     38 O          26.5657   29.3515    1.4271 O.2       5 UNK        -0.5220 
     39 N          27.6844   30.6197   -0.0833 N.am      6 UNK        -0.4450 
     40 CA         27.8104   31.8468    0.7130 C.3       6 UNK         0.0367 
     41 CB         28.3021   32.9861   -0.1943 C.3       6 UNK        -0.1929 
     42 C          28.7393   31.6970    1.9368 C.2       6 UNK         0.5070 
     43 O          28.6810   32.5333    2.8388 O.2       6 UNK        -0.5237 
     44 N          29.5693   30.6416    1.9488 N.am      7 UNK        -0.4739 
     45 CA         30.4112   30.1315    3.0390 C.3       7 UNK         0.0276 
     46 CB         29.5697   29.8761    4.3052 C.3       7 UNK        -0.1927 
     47 C          31.6485   30.9880    3.3518 C.2       7 UNK         0.5013 
     48 O          32.7294   30.4257    3.5450 O.2       7 UNK        -0.5193 
     49 N          31.4708   32.3158    3.3826 N.am      8 UNK        -0.4253 
     50 CA         32.4787   33.3527    3.6289 C.3       8 UNK         0.0242 
     51 CB         33.4023   33.4828    2.3957 C.3       8 UNK        -0.2000 
     52 C          33.2387   33.1362    4.9553 C.2       8 UNK         0.4948 
     53 O          32.6617   32.6211    5.9148 O.2       8 UNK        -0.5275 
     54 N          34.5223   33.5150    4.9933 N.am      9 UNK        -0.4246 
     55 CA         35.4222   33.2641    6.1229 C.3       9 UNK         0.0261 
     56 CB         36.6419   34.1937    6.0069 C.3       9 UNK        -0.1959 
     57 C          35.8737   31.7934    6.2266 C.2       9 UNK         0.5033 
     58 O          36.3687   31.3955    7.2820 O.2       9 UNK        -0.5390 
     59 N          35.7257   31.0242    5.1378 N.am      10 UNK        -0.4215 
     60 CA         36.1316   29.6231    5.0413 C.3       10 UNK         0.0240 
     61 CB         36.2160   29.2111    3.5617 C.3       10 UNK        -0.1982 
     62 C          35.2096   28.6832    5.8330 C.2       10 UNK         0.4970 
     63 O          35.7120   27.8897    6.6301 O.2       10 UNK        -0.4916 
     64 N          33.8956   28.7878    5.5977 N.am      11 UNK        -0.4279 
     65 CA         32.8635   27.9441    6.2246 C.3       11 UNK         0.1003 
     66 C          31.8848   28.7303    7.1401 C.2       11 UNK         0.5709 
     67 N          31.9339   30.0543    7.2150 N.am      11 UNK        -0.7358 
     68 O          31.0656   28.1190    7.8216 O.2       11 UNK        -0.4999 
     69 C69        32.1097   27.0890    5.1666 C.3       12 UNK        -0.0954 
     70 S70        33.1667   25.7706    4.4868 S.3       12 UNK        -0.2268 
     71 C71        33.6942   26.4853    2.8945 C.3       12 UNK         0.0203 
     72 H72        27.6338   27.3153    2.7848 H         1 UNK         0.0888 
     73 H73        28.3511   26.5954    4.2218 H         1 UNK         0.0888 
     74 H74        29.3718   26.9853    2.8363 H         1 UNK         0.0888 
     75 H75        28.7207   24.4016    4.2811 H         1 UNK         0.3017 
     76 H76        28.3825   22.2971    4.0268 H         1 UNK         0.0873 
     77 H77        30.4893   22.6726    2.7183 H         1 UNK         0.0745 
     78 H78        29.7008   21.1605    2.4340 H         1 UNK         0.0745 
     79 H79        31.6147   22.6138   -0.8656 H         1 UNK         0.0705 
     80 H80        32.0023   22.2227    0.7869 H         1 UNK         0.0705 
     81 H81        32.7370   23.9912    2.2636 H         1 UNK         0.1334 
     82 H82        32.7886   28.0453    0.8504 H         1 UNK         0.1417 
     83 H83        30.8537   24.9858   -1.4496 H         1 UNK         0.1562 
     84 H84        31.1455   27.1407   -2.4171 H         1 UNK         0.0748 
     85 H85        32.3581   28.2018   -1.7509 H         1 UNK         0.0748 
     86 H86        29.0596   27.3753    0.5372 H         1 UNK         0.0940 
     87 H87        28.8959   26.7889   -1.0880 H         1 UNK         0.0940 
     88 H88        27.1705   28.5335   -1.5929 H         1 UNK         0.0703 
     89 H89        26.8720   26.3654    0.2733 H         1 UNK         0.3081 
     90 H90        24.5068   25.8753    1.1830 H         1 UNK         0.0719 
     91 H91        22.3911   26.6796    0.2073 H         1 UNK         0.0809 
     92 H92        22.7343   25.8867   -1.3206 H         1 UNK         0.0809 
     93 H93        22.4422   24.9255    0.1284 H         1 UNK         0.0809 
     94 H94        25.5870   24.1352    0.3529 H         1 UNK         0.2990 
     95 H95        25.7414   22.4502   -2.6708 H         1 UNK         0.0690 
     96 H96        28.2361   22.6732   -2.5795 H         1 UNK         0.0788 
     97 H97        28.0747   24.1472   -1.6228 H         1 UNK         0.0788 
     98 H98        27.4974   24.1032   -3.2821 H         1 UNK         0.0788 
     99 H99        27.2689   22.2512   -0.2398 H         1 UNK         0.2993 
    100 H100       24.9265   20.6640    1.7620 H         1 UNK         0.0949 
    101 H101       26.9045   19.0175    0.0866 H         1 UNK         0.0767 
    102 H102       26.2393   18.5481    1.6523 H         1 UNK         0.0767 
    103 H103       25.1855   18.6889    0.2557 H         1 UNK         0.0767 
    104 H104       27.8294   20.6657    1.6549 H         1 UNK         0.3013 
    105 H105       28.1644   30.6149   -0.9732 H         1 UNK         0.3121 
    106 H106       26.8186   32.1060    1.0893 H         1 UNK         0.0774 
    107 H107       28.3749   33.9229    0.3602 H         1 UNK         0.0815 
    108 H108       29.2892   32.7757   -0.6082 H         1 UNK         0.0815 
    109 H109       27.6172   33.1572   -1.0250 H         1 UNK         0.0815 
    110 H110       29.5834   30.0767    1.1099 H         1 UNK         0.2987 
    111 H111       30.7811   29.1678    2.6856 H         1 UNK         0.0949 
    112 H112       28.6525   29.3355    4.0739 H         1 UNK         0.0806 
    113 H113       30.1187   29.2812    5.0299 H         1 UNK         0.0806 
    114 H114       29.2887   30.8049    4.8027 H         1 UNK         0.0806 
    115 H115       30.5147   32.6393    3.2549 H         1 UNK         0.3010 
    116 H116       31.9314   34.2896    3.7413 H         1 UNK         0.0829 
    117 H117       32.8181   33.5922    1.4817 H         1 UNK         0.0813 
    118 H118       34.0433   34.3625    2.4616 H         1 UNK         0.0813 
    119 H119       34.0417   32.6078    2.2711 H         1 UNK         0.0813 
    120 H120       34.9251   33.9495    4.1752 H         1 UNK         0.3038 
    121 H121       34.8946   33.5086    7.0477 H         1 UNK         0.0769 
    122 H122       37.3179   34.0578    6.8524 H         1 UNK         0.0811 
    123 H123       36.3433   35.2422    6.0001 H         1 UNK         0.0811 
    124 H124       37.2142   33.9999    5.0988 H         1 UNK         0.0811 
    125 H125       35.2780   31.4245    4.3266 H         1 UNK         0.3204 
    126 H126       37.1334   29.5320    5.4671 H         1 UNK         0.0748 
    127 H127       36.4627   28.1530    3.4626 H         1 UNK         0.0771 
    128 H128       35.2757   29.3808    3.0365 H         1 UNK         0.0771 
    129 H129       36.9919   29.7727    3.0410 H         1 UNK         0.0771 
    130 H130       33.5612   29.4600    4.9109 H         1 UNK         0.2980 
    131 H131       33.3418   27.2447    6.9124 H         1 UNK         0.0545 
    132 H132       31.2894   30.5249    7.8291 H         1 UNK         0.3459 
    133 H133       32.5614   30.6098    6.6495 H         1 UNK         0.3459 
    134 H134       31.2401   26.5968    5.6057 H         1 UNK         0.0616 
    135 H135       31.7305   27.7090    4.3549 H         1 UNK         0.0616 
    136 H136       34.7165   26.1611    2.6973 H         1 UNK         0.0634 
    137 H137       33.7295   27.5713    2.9827 H         1 UNK         0.0634 
@<TRIPOS>BOND
     1    1    2 1    
     2    1   72 1    
     3    1   73 1    
     4    1   74 1    
     5    2    3 2    
     6    2    4 am   BACKBONE|DICT|INTERRES
     7    4    5 1    
     8    4   75 1    
     9    5    6 1    
    10    5   35 1    
    11    5   76 1    
    12    6    7 1    
    13    6   77 1    
    14    6   78 1    
    15    7    8 1    
    16    8    9 1    
    17    8   79 1    
    18    8   80 1    
    19    9   10 ar   
    20    9   14 ar   
    21   10   11 ar   
    22   10   81 1    
    23   11   12 ar   
    24   11   71 1    
    25   12   13 ar   
    26   12   82 1    
    27   13   14 ar   
    28   13   15 1    
    29   14   83 1    
    30   15   16 1    
    31   15   84 1    
    32   15   85 1    
    33   16   17 1    
    34   17   18 1    
    35   17   86 1    
    36   17   87 1    
    37   18   19 1    
    38   18   37 1    
    39   18   88 1    
    40   19   20 am   BACKBONE|DICT|INTERRES
    41   19   89 1    
    42   20   21 2    
    43   20   22 1    
    44   22   23 1    
    45   22   24 1    
    46   22   90 1    
    47   23   91 1    
    48   23   92 1    
    49   23   93 1    
    50   24   25 am   BACKBONE|DICT|INTERRES
    51   24   94 1    
    52   25   26 2    
    53   25   27 1    
    54   27   28 1    
    55   27   29 1    
    56   27   95 1    
    57   28   96 1    
    58   28   97 1    
    59   28   98 1    
    60   29   30 am   BACKBONE|DICT|INTERRES
    61   29   99 1    
    62   30   31 2    
    63   30   32 1    
    64   32   33 1    
    65   32   34 1    
    66   32  100 1    
    67   33  101 1    
    68   33  102 1    
    69   33  103 1    
    70   34   35 am   BACKBONE|DICT|INTERRES
    71   34  104 1    
    72   35   36 2    
    73   37   38 2    
    74   37   39 am   BACKBONE|DICT|INTERRES
    75   39   40 1    
    76   39  105 1    
    77   40   41 1    
    78   40   42 1    
    79   40  106 1    
    80   41  107 1    
    81   41  108 1    
    82   41  109 1    
    83   42   43 2    
    84   42   44 am   BACKBONE|DICT|INTERRES
    85   44   45 1    
    86   44  110 1    
    87   45   46 1    
    88   45   47 1    
    89   45  111 1    
    90   46  112 1    
    91   46  113 1    
    92   46  114 1    
    93   47   48 2    
    94   47   49 am   BACKBONE|DICT|INTERRES
    95   49   50 1    
    96   49  115 1    
    97   50   51 1    
    98   50   52 1    
    99   50  116 1    
   100   51  117 1    
   101   51  118 1    
   102   51  119 1    
   103   52   53 2    
   104   52   54 am   BACKBONE|DICT|INTERRES
   105   54   55 1    
   106   54  120 1    
   107   55   56 1    
   108   55   57 1    
   109   55  121 1    
   110   56  122 1    
   111   56  123 1    
   112   56  124 1    
   113   57   58 2    
   114   57   59 am   BACKBONE|DICT|INTERRES
   115   59   60 1    
   116   59  125 1    
   117   60   61 1    
   118   60   62 1    
   119   60  126 1    
   120   61  127 1    
   121   61  128 1    
   122   61  129 1    
   123   62   63 2    
   124   62   64 am   BACKBONE|DICT|INTERRES
   125   64   65 1    
   126   64  130 1    
   127   65   66 1    
   128   65   69 1    
   129   65  131 1    
   130   66   67 am   BACKBONE|DICT|INTERRES
   131   66   68 2    
   132   67  132 1    
   133   67  133 1    
   134   69   70 1    
   135   69  134 1    
   136   69  135 1    
   137   70   71 1    
   138   71  136 1    
   139   71  137 1    
@<TRIPOS>SUBSTRUCTURE
     1 UNK         1 GROUP             0       ****    0 ROOT    
