@<TRIPOS>MOLECULE
3R136
137   139    1
SMALL
USER_CHARGES


@<TRIPOS>ATOM
      1 CA         30.8906   19.9924    1.0605 C.3       0 UNK        -0.1979 
      2 C          30.3210   20.5585   -0.2323 C.2       0 UNK         0.4864 
      3 O          29.6174   19.8514   -0.9552 O.2       0 UNK        -0.5359 
      4 N          30.6275   21.8276   -0.5272 N.am      1 UNK        -0.4318 
      5 CA         30.0895   22.5911   -1.6565 C.3       1 UNK         0.0824 
      6 C6         30.9749   23.8278   -1.9721 C.3       12 UNK        -0.0944 
      7 S7         31.0010   25.1426   -0.7013 S.3       12 UNK        -0.2672 
      8 C8         32.2926   24.5775    0.4608 C.3       12 UNK         0.0333 
      9 C9         31.7823   24.4646    1.8968 C.ar      12 UNK        -0.0807 
     10 C10        32.5739   24.9044    2.9634 C.ar      12 UNK        -0.0894 
     11 C11        32.1141   24.8039    4.2821 C.ar      12 UNK        -0.0804 
     12 C12        30.8517   24.2583    4.5352 C.ar      12 UNK        -0.0824 
     13 C13        30.0493   23.8218    3.4790 C.ar      12 UNK        -0.0762 
     14 C14        30.5253   23.9173    2.1716 C.ar      12 UNK        -0.0782 
     15 C15        28.6577   23.2631    3.7287 C.3       12 UNK         0.0230 
     16 S16        27.3746   24.3364    3.0076 S.3       12 UNK        -0.2608 
     17 C17        27.4418   25.7844    4.1136 C.3       12 UNK        -0.0989 
     18 CA         28.2742   26.9780    3.5672 C.3       5 UNK         0.0716 
     19 N          27.8797   27.3403    2.2000 N.am      5 UNK        -0.4135 
     20 C          28.2569   28.4066    1.4790 C.2       4 UNK         0.5031 
     21 O          28.9923   29.3055    1.8932 O.2       4 UNK        -0.5229 
     22 CA         27.7558   28.5017    0.0242 C.3       4 UNK         0.0329 
     23 CB         28.9325   28.4531   -0.9637 C.3       4 UNK        -0.2001 
     24 N          26.7827   27.4844   -0.3825 N.am      4 UNK        -0.4303 
     25 C          25.5060   27.4130    0.0044 C.2       3 UNK         0.5044 
     26 O          25.0190   28.1527    0.8594 O.2       3 UNK        -0.5152 
     27 CA         24.5994   26.3638   -0.6738 C.3       3 UNK         0.0319 
     28 CB         23.8014   27.0163   -1.8196 C.3       3 UNK        -0.2001 
     29 N          25.2295   25.1139   -1.1391 N.am      3 UNK        -0.4354 
     30 C          26.1749   24.9272   -2.0729 C.2       2 UNK         0.4964 
     31 O          26.7989   25.8348   -2.6259 O.2       2 UNK        -0.5047 
     32 CA         26.4320   23.4734   -2.5013 C.3       2 UNK         0.0288 
     33 CB         25.8223   23.2073   -3.8880 C.3       2 UNK        -0.2113 
     34 N          27.8624   23.1647   -2.5369 N.am      2 UNK        -0.4145 
     35 C          28.5968   22.9394   -1.4404 C.2       1 UNK         0.5006 
     36 O          28.1295   22.9836   -0.2994 O.2       1 UNK        -0.5103 
     37 C          28.1729   28.1561    4.5590 C.2       5 UNK         0.5055 
     38 O          27.0595   28.5692    4.8921 O.2       5 UNK        -0.5220 
     39 N          29.3282   28.6611    5.0129 N.am      6 UNK        -0.4450 
     40 CA         29.5108   29.7691    5.9586 C.3       6 UNK         0.0367 
     41 CB         28.9254   29.4230    7.3438 C.3       6 UNK        -0.1929 
     42 C          29.0260   31.1345    5.4275 C.2       6 UNK         0.5070 
     43 O          28.8369   32.0587    6.2201 O.2       6 UNK        -0.5237 
     44 N          28.8485   31.2480    4.1064 N.am      7 UNK        -0.4739 
     45 CA         28.4474   32.4569    3.3975 C.3       7 UNK         0.0276 
     46 CB         27.0769   32.2210    2.7295 C.3       7 UNK        -0.1927 
     47 C          29.5731   32.8041    2.4169 C.2       7 UNK         0.5013 
     48 O          30.5741   33.3839    2.8397 O.2       7 UNK        -0.5193 
     49 N          29.4129   32.4293    1.1395 N.am      8 UNK        -0.4253 
     50 CA         30.4270   32.5923    0.0934 C.3       8 UNK         0.0242 
     51 CB         29.7941   32.3463   -1.2856 C.3       8 UNK        -0.2000 
     52 C          31.6626   31.6990    0.3099 C.2       8 UNK         0.4948 
     53 O          32.7691   32.1120   -0.0391 O.2       8 UNK        -0.5275 
     54 N          31.4637   30.5210    0.9153 N.am      9 UNK        -0.4246 
     55 CA         32.5183   29.6643    1.4420 C.3       9 UNK         0.0261 
     56 CB         32.2489   28.2060    1.0309 C.3       9 UNK        -0.1959 
     57 C          32.4865   29.8542    2.9604 C.2       9 UNK         0.5033 
     58 O          31.7475   29.1503    3.6451 O.2       9 UNK        -0.5390 
     59 N          33.2301   30.8559    3.4474 N.am      10 UNK        -0.4215 
     60 CA         33.1894   31.3508    4.8297 C.3       10 UNK         0.0240 
     61 CB         34.0000   32.6549    4.9121 C.3       10 UNK        -0.1982 
     62 C          33.6561   30.3569    5.9128 C.2       10 UNK         0.4970 
     63 O          33.3716   30.5904    7.0880 O.2       10 UNK        -0.4916 
     64 N          34.3606   29.2908    5.5103 N.am      11 UNK        -0.4279 
     65 CA         34.8667   28.1985    6.3634 C.3       11 UNK         0.1003 
     66 C          36.0472   28.5964    7.3012 C.2       11 UNK         0.5709 
     67 N          36.6896   29.7427    7.1084 N.am      11 UNK        -0.7358 
     68 O          36.4144   27.8404    8.1979 O.2       11 UNK        -0.4999 
     69 C69        33.7476   27.4153    7.1175 C.3       12 UNK        -0.0954 
     70 S70        32.3678   26.8963    6.0446 S.3       12 UNK        -0.2268 
     71 C71        32.9728   25.2965    5.4357 C.3       12 UNK         0.0203 
     72 H72        31.5423   19.1468    0.8465 H         1 UNK         0.0888 
     73 H73        31.4670   20.7343    1.6117 H         1 UNK         0.0888 
     74 H74        30.0838   19.6470    1.7049 H         1 UNK         0.0888 
     75 H75        31.1900   22.3598    0.1183 H         1 UNK         0.3017 
     76 H76        30.1341   21.9347   -2.5287 H         1 UNK         0.0873 
     77 H77        31.9997   23.5101   -2.1712 H         1 UNK         0.0745 
     78 H78        30.6369   24.2877   -2.9023 H         1 UNK         0.0745 
     79 H79        33.1221   25.2836    0.4075 H         1 UNK         0.0705 
     80 H80        32.6985   23.6147    0.1511 H         1 UNK         0.0705 
     81 H81        33.5478   25.3322    2.7687 H         1 UNK         0.1334 
     82 H82        30.4911   24.1930    5.5528 H         1 UNK         0.1417 
     83 H83        29.8842   23.5931    1.3668 H         1 UNK         0.1562 
     84 H84        28.4690   23.1254    4.7945 H         1 UNK         0.0748 
     85 H85        28.5851   22.2747    3.2725 H         1 UNK         0.0748 
     86 H86        27.8226   25.4722    5.0880 H         1 UNK         0.0940 
     87 H87        26.4073   26.0895    4.2855 H         1 UNK         0.0940 
     88 H88        29.3196   26.6675    3.5108 H         1 UNK         0.0703 
     89 H89        27.2754   26.6717    1.7467 H         1 UNK         0.3081 
     90 H90        27.2765   29.4779   -0.0716 H         1 UNK         0.0719 
     91 H91        29.3786   27.4611   -0.9998 H         1 UNK         0.0809 
     92 H92        28.6122   28.7092   -1.9736 H         1 UNK         0.0809 
     93 H93        29.7235   29.1486   -0.6898 H         1 UNK         0.0809 
     94 H94        27.0610   26.8624   -1.1385 H         1 UNK         0.2990 
     95 H95        23.8808   26.0557    0.0877 H         1 UNK         0.0690 
     96 H96        23.0684   26.3256   -2.2368 H         1 UNK         0.0788 
     97 H97        24.4521   27.3452   -2.6309 H         1 UNK         0.0788 
     98 H98        23.2550   27.8924   -1.4672 H         1 UNK         0.0788 
     99 H99        24.8334   24.2806   -0.7255 H         1 UNK         0.2993 
    100 H100       25.9519   22.8004   -1.7868 H         1 UNK         0.0949 
    101 H101       26.2723   23.8384   -4.6557 H         1 UNK         0.0767 
    102 H102       25.9547   22.1674   -4.1873 H         1 UNK         0.0767 
    103 H103       24.7502   23.4097   -3.8879 H         1 UNK         0.0767 
    104 H104       28.3047   23.1589   -3.4444 H         1 UNK         0.3013 
    105 H105       30.1964   28.3568    4.5753 H         1 UNK         0.3121 
    106 H106       30.5896   29.8675    6.0827 H         1 UNK         0.0774 
    107 H107       29.2052   30.1731    8.0842 H         1 UNK         0.0815 
    108 H108       27.8363   29.3774    7.3248 H         1 UNK         0.0815 
    109 H109       29.2982   28.4633    7.7016 H         1 UNK         0.0815 
    110 H110       29.0505   30.4408    3.5215 H         1 UNK         0.2987 
    111 H111       28.3525   33.3009    4.0841 H         1 UNK         0.0949 
    112 H112       26.7808   33.0769    2.1214 H         1 UNK         0.0806 
    113 H113       27.0684   31.3356    2.0932 H         1 UNK         0.0806 
    114 H114       26.3015   32.0818    3.4831 H         1 UNK         0.0806 
    115 H115       28.5656   31.9431    0.8864 H         1 UNK         0.3010 
    116 H116       30.7721   33.6283    0.1235 H         1 UNK         0.0829 
    117 H117       29.0079   33.0723   -1.4934 H         1 UNK         0.0813 
    118 H118       30.5373   32.4414   -2.0787 H         1 UNK         0.0813 
    119 H119       29.3578   31.3517   -1.3651 H         1 UNK         0.0813 
    120 H120       30.5244   30.2705    1.2153 H         1 UNK         0.3038 
    121 H121       33.4998   29.9540    1.0609 H         1 UNK         0.0769 
    122 H122       33.0189   27.5472    1.4317 H         1 UNK         0.0811 
    123 H123       32.2524   28.0923   -0.0529 H         1 UNK         0.0811 
    124 H124       31.2893   27.8410    1.3991 H         1 UNK         0.0811 
    125 H125       33.7813   31.3973    2.7962 H         1 UNK         0.3204 
    126 H126       32.1477   31.5906    5.0523 H         1 UNK         0.0748 
    127 H127       33.9675   33.0752    5.9185 H         1 UNK         0.0771 
    128 H128       35.0488   32.4963    4.6581 H         1 UNK         0.0771 
    129 H129       33.5994   33.4120    4.2371 H         1 UNK         0.0771 
    130 H130       34.5432   29.1924    4.5235 H         1 UNK         0.2980 
    131 H131       35.3169   27.4954    5.6625 H         1 UNK         0.0545 
    132 H132       36.4082   30.3686    6.3718 H         1 UNK         0.3459 
    133 H133       37.4591   29.9846    7.7126 H         1 UNK         0.3459 
    134 H134       33.3316   28.0269    7.9193 H         1 UNK         0.0616 
    135 H135       34.1579   26.5273    7.6015 H         1 UNK         0.0616 
    136 H136       32.9605   24.5694    6.2488 H         1 UNK         0.0634 
    137 H137       34.0122   25.3962    5.1199 H         1 UNK         0.0634 
@<TRIPOS>BOND
     1    1    2 1    
     2    1   72 1    
     3    1   73 1    
     4    1   74 1    
     5    2    3 2    
     6    2    4 am   BACKBONE|DICT|INTERRES
     7    4    5 1    
     8    4   75 1    
     9    5    6 1    
    10    5   35 1    
    11    5   76 1    
    12    6    7 1    
    13    6   77 1    
    14    6   78 1    
    15    7    8 1    
    16    8    9 1    
    17    8   79 1    
    18    8   80 1    
    19    9   10 ar   
    20    9   14 ar   
    21   10   11 ar   
    22   10   81 1    
    23   11   12 ar   
    24   11   71 1    
    25   12   13 ar   
    26   12   82 1    
    27   13   14 ar   
    28   13   15 1    
    29   14   83 1    
    30   15   16 1    
    31   15   84 1    
    32   15   85 1    
    33   16   17 1    
    34   17   18 1    
    35   17   86 1    
    36   17   87 1    
    37   18   19 1    
    38   18   37 1    
    39   18   88 1    
    40   19   20 am   BACKBONE|DICT|INTERRES
    41   19   89 1    
    42   20   21 2    
    43   20   22 1    
    44   22   23 1    
    45   22   24 1    
    46   22   90 1    
    47   23   91 1    
    48   23   92 1    
    49   23   93 1    
    50   24   25 am   BACKBONE|DICT|INTERRES
    51   24   94 1    
    52   25   26 2    
    53   25   27 1    
    54   27   28 1    
    55   27   29 1    
    56   27   95 1    
    57   28   96 1    
    58   28   97 1    
    59   28   98 1    
    60   29   30 am   BACKBONE|DICT|INTERRES
    61   29   99 1    
    62   30   31 2    
    63   30   32 1    
    64   32   33 1    
    65   32   34 1    
    66   32  100 1    
    67   33  101 1    
    68   33  102 1    
    69   33  103 1    
    70   34   35 am   BACKBONE|DICT|INTERRES
    71   34  104 1    
    72   35   36 2    
    73   37   38 2    
    74   37   39 am   BACKBONE|DICT|INTERRES
    75   39   40 1    
    76   39  105 1    
    77   40   41 1    
    78   40   42 1    
    79   40  106 1    
    80   41  107 1    
    81   41  108 1    
    82   41  109 1    
    83   42   43 2    
    84   42   44 am   BACKBONE|DICT|INTERRES
    85   44   45 1    
    86   44  110 1    
    87   45   46 1    
    88   45   47 1    
    89   45  111 1    
    90   46  112 1    
    91   46  113 1    
    92   46  114 1    
    93   47   48 2    
    94   47   49 am   BACKBONE|DICT|INTERRES
    95   49   50 1    
    96   49  115 1    
    97   50   51 1    
    98   50   52 1    
    99   50  116 1    
   100   51  117 1    
   101   51  118 1    
   102   51  119 1    
   103   52   53 2    
   104   52   54 am   BACKBONE|DICT|INTERRES
   105   54   55 1    
   106   54  120 1    
   107   55   56 1    
   108   55   57 1    
   109   55  121 1    
   110   56  122 1    
   111   56  123 1    
   112   56  124 1    
   113   57   58 2    
   114   57   59 am   BACKBONE|DICT|INTERRES
   115   59   60 1    
   116   59  125 1    
   117   60   61 1    
   118   60   62 1    
   119   60  126 1    
   120   61  127 1    
   121   61  128 1    
   122   61  129 1    
   123   62   63 2    
   124   62   64 am   BACKBONE|DICT|INTERRES
   125   64   65 1    
   126   64  130 1    
   127   65   66 1    
   128   65   69 1    
   129   65  131 1    
   130   66   67 am   BACKBONE|DICT|INTERRES
   131   66   68 2    
   132   67  132 1    
   133   67  133 1    
   134   69   70 1    
   135   69  134 1    
   136   69  135 1    
   137   70   71 1    
   138   71  136 1    
   139   71  137 1    
@<TRIPOS>SUBSTRUCTURE
     1 UNK         1 GROUP             0       ****    0 ROOT    
