@<TRIPOS>MOLECULE
3R136
137   139    1
SMALL
USER_CHARGES


@<TRIPOS>ATOM
      1 CA         30.3988   22.0301    7.8329 C.3       0 UNK        -0.1979 
      2 C          29.7015   21.9883    6.4809 C.2       0 UNK         0.4864 
      3 O          28.6022   21.4417    6.3766 O.2       0 UNK        -0.5359 
      4 N          30.3400   22.5577    5.4532 N.am      1 UNK        -0.4318 
      5 CA         29.8272   22.7011    4.0923 C.3       1 UNK         0.0824 
      6 C6         30.8994   22.2478    3.0671 C.3       12 UNK        -0.0944 
      7 S7         30.2106   21.8917    1.4166 S.3       12 UNK        -0.2672 
      8 C8         31.6566   22.2147    0.3624 C.3       12 UNK         0.0333 
      9 C9         31.8689   23.7017    0.1126 C.ar      12 UNK        -0.0807 
     10 C10        32.8182   24.4194    0.8485 C.ar      12 UNK        -0.0894 
     11 C11        33.0620   25.7661    0.5651 C.ar      12 UNK        -0.0804 
     12 C12        32.3525   26.3907   -0.4638 C.ar      12 UNK        -0.0824 
     13 C13        31.3911   25.6908   -1.2024 C.ar      12 UNK        -0.0762 
     14 C14        31.1525   24.3460   -0.9016 C.ar      12 UNK        -0.0782 
     15 C15        30.6636   26.3385   -2.3805 C.3       12 UNK         0.0230 
     16 S16        30.2825   28.1083   -2.1490 S.3       12 UNK        -0.2608 
     17 C17        28.8606   28.0478   -1.0085 C.3       12 UNK        -0.0989 
     18 CA         27.5867   28.6768   -1.6283 C.3       5 UNK         0.0716 
     19 N          26.3840   28.1818   -0.9611 N.am      5 UNK        -0.4135 
     20 C          25.1695   28.1238   -1.5241 C.2       4 UNK         0.5031 
     21 O          24.9423   28.4796   -2.6827 O.2       4 UNK        -0.5229 
     22 CA         24.0135   27.5784   -0.6557 C.3       4 UNK         0.0329 
     23 CB         22.9071   26.9048   -1.4962 C.3       4 UNK        -0.2001 
     24 N          24.4522   26.6929    0.4323 N.am      4 UNK        -0.4303 
     25 C          25.1174   25.5331    0.3209 C.2       3 UNK         0.5044 
     26 O          25.4247   25.0001   -0.7470 O.2       3 UNK        -0.5152 
     27 CA         25.5576   24.8857    1.6441 C.3       3 UNK         0.0319 
     28 CB         25.1877   23.3931    1.6887 C.3       3 UNK        -0.2001 
     29 N          26.9969   25.0282    1.8737 N.am      3 UNK        -0.4354 
     30 C          27.6757   26.1815    1.9805 C.2       2 UNK         0.4964 
     31 O          27.1571   27.2894    1.8281 O.2       2 UNK        -0.5047 
     32 CA         29.1858   26.0934    2.2910 C.3       2 UNK         0.0288 
     33 CB         29.6373   27.2075    3.2605 C.3       2 UNK        -0.2113 
     34 N          29.6221   24.7668    2.7539 N.am      2 UNK        -0.4145 
     35 C          29.3150   24.1488    3.9060 C.2       1 UNK         0.5006 
     36 O          28.6312   24.6630    4.7940 O.2       1 UNK        -0.5103 
     37 C          27.6366   30.2179   -1.5858 C.2       5 UNK         0.5055 
     38 O          27.0588   30.8357   -0.6877 O.2       5 UNK        -0.5220 
     39 N          28.3750   30.8038   -2.5374 N.am      6 UNK        -0.4450 
     40 CA         28.7456   32.2221   -2.5506 C.3       6 UNK         0.0367 
     41 CB         29.1256   32.6265   -3.9847 C.3       6 UNK        -0.1929 
     42 C          29.8965   32.5460   -1.5755 C.2       6 UNK         0.5070 
     43 O          30.1104   33.7196   -1.2686 O.2       6 UNK        -0.5237 
     44 N          30.6242   31.5156   -1.1197 N.am      7 UNK        -0.4739 
     45 CA         31.6838   31.6022   -0.1128 C.3       7 UNK         0.0276 
     46 CB         32.4468   30.2664   -0.0876 C.3       7 UNK        -0.1927 
     47 C          31.1346   31.9187    1.2901 C.2       7 UNK         0.5013 
     48 O          29.9402   31.7455    1.5474 O.2       7 UNK        -0.5193 
     49 N          32.0357   32.3446    2.1847 N.am      8 UNK        -0.4253 
     50 CA         31.7550   32.5583    3.6057 C.3       8 UNK         0.0242 
     51 CB         32.9693   33.2368    4.2619 C.3       8 UNK        -0.2000 
     52 C          31.4267   31.2388    4.3253 C.2       8 UNK         0.4948 
     53 O          31.9675   30.1913    3.9672 O.2       8 UNK        -0.5275 
     54 N          30.5881   31.3255    5.3654 N.am      9 UNK        -0.4246 
     55 CA         30.0915   30.1890    6.1513 C.3       9 UNK         0.0261 
     56 CB         28.9472   30.6753    7.0572 C.3       9 UNK        -0.1959 
     57 C          31.1559   29.4406    6.9795 C.2       9 UNK         0.5033 
     58 O          30.8389   28.3901    7.5377 O.2       9 UNK        -0.5390 
     59 N          32.3861   29.9696    7.0505 N.am      10 UNK        -0.4215 
     60 CA         33.5277   29.4060    7.7784 C.3       10 UNK         0.0240 
     61 CB         34.7351   30.3463    7.6295 C.3       10 UNK        -0.1982 
     62 C          33.9079   27.9718    7.3632 C.2       10 UNK         0.4970 
     63 O          34.3480   27.2045    8.2204 O.2       10 UNK        -0.4916 
     64 N          33.7185   27.6310    6.0811 N.am      11 UNK        -0.4279 
     65 CA         33.8666   26.2632    5.5581 C.3       11 UNK         0.1003 
     66 C          32.5997   25.3734    5.7201 C.2       11 UNK         0.5709 
     67 N          31.4903   25.8615    6.2632 N.am      11 UNK        -0.7358 
     68 O          32.6316   24.1965    5.3700 O.2       11 UNK        -0.4999 
     69 C69        34.4398   26.2435    4.1146 C.3       12 UNK        -0.0954 
     70 S70        33.4748   27.2002    2.8979 S.3       12 UNK        -0.2268 
     71 C71        34.1239   26.5402    1.3322 C.3       12 UNK         0.0203 
     72 H72        29.7764   22.5507    8.5601 H         1 UNK         0.0888 
     73 H73        30.5758   21.0181    8.1961 H         1 UNK         0.0888 
     74 H74        31.3588   22.5442    7.7793 H         1 UNK         0.0888 
     75 H75        31.2330   23.0226    5.6067 H         1 UNK         0.3017 
     76 H76        28.9562   22.0541    3.9688 H         1 UNK         0.0873 
     77 H77        31.7119   22.9729    3.0079 H         1 UNK         0.0745 
     78 H78        31.3639   21.3217    3.4104 H         1 UNK         0.0745 
     79 H79        31.5123   21.7046   -0.5913 H         1 UNK         0.0705 
     80 H80        32.5451   21.7662    0.8101 H         1 UNK         0.0705 
     81 H81        33.3866   23.9283    1.6265 H         1 UNK         0.1334 
     82 H82        32.5705   27.4208   -0.7042 H         1 UNK         0.1417 
     83 H83        30.4307   23.7854   -1.4808 H         1 UNK         0.1562 
     84 H84        29.7392   25.8046   -2.6070 H         1 UNK         0.0748 
     85 H85        31.2973   26.2396   -3.2627 H         1 UNK         0.0748 
     86 H86        29.1286   28.5272   -0.0638 H         1 UNK         0.0940 
     87 H87        28.6697   27.0017   -0.7662 H         1 UNK         0.0940 
     88 H88        27.5285   28.3683   -2.6751 H         1 UNK         0.0703 
     89 H89        26.4860   27.9246    0.0154 H         1 UNK         0.3081 
     90 H90        23.5717   28.4511   -0.1727 H         1 UNK         0.0719 
     91 H91        22.4722   27.6072   -2.2083 H         1 UNK         0.0809 
     92 H92        23.2915   26.0598   -2.0683 H         1 UNK         0.0809 
     93 H93        22.0949   26.5422   -0.8662 H         1 UNK         0.0809 
     94 H94        24.2970   27.0521    1.3648 H         1 UNK         0.2990 
     95 H95        25.0415   25.3824    2.4684 H         1 UNK         0.0690 
     96 H96        25.4231   22.9541    2.6585 H         1 UNK         0.0788 
     97 H97        25.7159   22.8215    0.9242 H         1 UNK         0.0788 
     98 H98        24.1191   23.2514    1.5208 H         1 UNK         0.0788 
     99 H99        27.5164   24.1694    1.9717 H         1 UNK         0.2993 
    100 H100       29.7042   26.2566    1.3455 H         1 UNK         0.0949 
    101 H101       29.0467   27.2126    4.1769 H         1 UNK         0.0767 
    102 H102       30.6818   27.0932    3.5436 H         1 UNK         0.0767 
    103 H103       29.5335   28.1922    2.8025 H         1 UNK         0.0767 
    104 H104       30.1763   24.2414    2.0882 H         1 UNK         0.3013 
    105 H105       28.8167   30.2170   -3.2322 H         1 UNK         0.3121 
    106 H106       27.8804   32.8149   -2.2454 H         1 UNK         0.0774 
    107 H107       29.3754   33.6871   -4.0372 H         1 UNK         0.0815 
    108 H108       29.9914   32.0702   -4.3462 H         1 UNK         0.0815 
    109 H109       28.3014   32.4555   -4.6775 H         1 UNK         0.0815 
    110 H110       30.3643   30.5853   -1.4139 H         1 UNK         0.2987 
    111 H111       32.3685   32.4009   -0.4068 H         1 UNK         0.0949 
    112 H112       32.8224   29.9999   -1.0757 H         1 UNK         0.0806 
    113 H113       33.3061   30.3125    0.5826 H         1 UNK         0.0806 
    114 H114       31.8107   29.4532    0.2651 H         1 UNK         0.0806 
    115 H115       33.0019   32.4192    1.9024 H         1 UNK         0.3010 
    116 H116       30.8931   33.2251    3.6815 H         1 UNK         0.0829 
    117 H117       33.2026   34.1863    3.7796 H         1 UNK         0.0813 
    118 H118       32.7794   33.4505    5.3146 H         1 UNK         0.0813 
    119 H119       33.8592   32.6074    4.2126 H         1 UNK         0.0813 
    120 H120       30.2142   32.2319    5.6094 H         1 UNK         0.3038 
    121 H121       29.6801   29.4620    5.4478 H         1 UNK         0.0769 
    122 H122       28.5169   29.8485    7.6244 H         1 UNK         0.0811 
    123 H123       28.1385   31.1171    6.4747 H         1 UNK         0.0811 
    124 H124       29.2909   31.4191    7.7771 H         1 UNK         0.0811 
    125 H125       32.5519   30.8251    6.5422 H         1 UNK         0.3204 
    126 H126       33.2494   29.3719    8.8337 H         1 UNK         0.0748 
    127 H127       35.5970   29.9657    8.1797 H         1 UNK         0.0771 
    128 H128       35.0360   30.4547    6.5865 H         1 UNK         0.0771 
    129 H129       34.5168   31.3397    8.0221 H         1 UNK         0.0771 
    130 H130       33.3369   28.3103    5.4365 H         1 UNK         0.2980 
    131 H131       34.6177   25.7597    6.1692 H         1 UNK         0.0545 
    132 H132       30.6722   25.2796    6.3344 H         1 UNK         0.3459 
    133 H133       31.4479   26.8095    6.6227 H         1 UNK         0.3459 
    134 H134       35.4510   26.6527    4.1240 H         1 UNK         0.0616 
    135 H135       34.5418   25.2156    3.7616 H         1 UNK         0.0616 
    136 H136       34.4869   27.3761    0.7322 H         1 UNK         0.0634 
    137 H137       34.9916   25.9040    1.5118 H         1 UNK         0.0634 
@<TRIPOS>BOND
     1    1    2 1    
     2    1   72 1    
     3    1   73 1    
     4    1   74 1    
     5    2    3 2    
     6    2    4 am   BACKBONE|DICT|INTERRES
     7    4    5 1    
     8    4   75 1    
     9    5    6 1    
    10    5   35 1    
    11    5   76 1    
    12    6    7 1    
    13    6   77 1    
    14    6   78 1    
    15    7    8 1    
    16    8    9 1    
    17    8   79 1    
    18    8   80 1    
    19    9   10 ar   
    20    9   14 ar   
    21   10   11 ar   
    22   10   81 1    
    23   11   12 ar   
    24   11   71 1    
    25   12   13 ar   
    26   12   82 1    
    27   13   14 ar   
    28   13   15 1    
    29   14   83 1    
    30   15   16 1    
    31   15   84 1    
    32   15   85 1    
    33   16   17 1    
    34   17   18 1    
    35   17   86 1    
    36   17   87 1    
    37   18   19 1    
    38   18   37 1    
    39   18   88 1    
    40   19   20 am   BACKBONE|DICT|INTERRES
    41   19   89 1    
    42   20   21 2    
    43   20   22 1    
    44   22   23 1    
    45   22   24 1    
    46   22   90 1    
    47   23   91 1    
    48   23   92 1    
    49   23   93 1    
    50   24   25 am   BACKBONE|DICT|INTERRES
    51   24   94 1    
    52   25   26 2    
    53   25   27 1    
    54   27   28 1    
    55   27   29 1    
    56   27   95 1    
    57   28   96 1    
    58   28   97 1    
    59   28   98 1    
    60   29   30 am   BACKBONE|DICT|INTERRES
    61   29   99 1    
    62   30   31 2    
    63   30   32 1    
    64   32   33 1    
    65   32   34 1    
    66   32  100 1    
    67   33  101 1    
    68   33  102 1    
    69   33  103 1    
    70   34   35 am   BACKBONE|DICT|INTERRES
    71   34  104 1    
    72   35   36 2    
    73   37   38 2    
    74   37   39 am   BACKBONE|DICT|INTERRES
    75   39   40 1    
    76   39  105 1    
    77   40   41 1    
    78   40   42 1    
    79   40  106 1    
    80   41  107 1    
    81   41  108 1    
    82   41  109 1    
    83   42   43 2    
    84   42   44 am   BACKBONE|DICT|INTERRES
    85   44   45 1    
    86   44  110 1    
    87   45   46 1    
    88   45   47 1    
    89   45  111 1    
    90   46  112 1    
    91   46  113 1    
    92   46  114 1    
    93   47   48 2    
    94   47   49 am   BACKBONE|DICT|INTERRES
    95   49   50 1    
    96   49  115 1    
    97   50   51 1    
    98   50   52 1    
    99   50  116 1    
   100   51  117 1    
   101   51  118 1    
   102   51  119 1    
   103   52   53 2    
   104   52   54 am   BACKBONE|DICT|INTERRES
   105   54   55 1    
   106   54  120 1    
   107   55   56 1    
   108   55   57 1    
   109   55  121 1    
   110   56  122 1    
   111   56  123 1    
   112   56  124 1    
   113   57   58 2    
   114   57   59 am   BACKBONE|DICT|INTERRES
   115   59   60 1    
   116   59  125 1    
   117   60   61 1    
   118   60   62 1    
   119   60  126 1    
   120   61  127 1    
   121   61  128 1    
   122   61  129 1    
   123   62   63 2    
   124   62   64 am   BACKBONE|DICT|INTERRES
   125   64   65 1    
   126   64  130 1    
   127   65   66 1    
   128   65   69 1    
   129   65  131 1    
   130   66   67 am   BACKBONE|DICT|INTERRES
   131   66   68 2    
   132   67  132 1    
   133   67  133 1    
   134   69   70 1    
   135   69  134 1    
   136   69  135 1    
   137   70   71 1    
   138   71  136 1    
   139   71  137 1    
@<TRIPOS>SUBSTRUCTURE
     1 UNK         1 GROUP             0       ****    0 ROOT    
