@<TRIPOS>MOLECULE
3R136
137   139    1
SMALL
USER_CHARGES


@<TRIPOS>ATOM
      1 CA         29.7956   17.1784    0.5444 C.3       0 UNK        -0.1979 
      2 C          29.1118   18.3201   -0.1938 C.2       0 UNK         0.4864 
      3 O          27.9671   18.1705   -0.6252 O.2       0 UNK        -0.5359 
      4 N          29.8076   19.4533   -0.3497 N.am      1 UNK        -0.4318 
      5 CA         29.2887   20.6808   -0.9607 C.3       1 UNK         0.0824 
      6 C6         30.4418   21.5482   -1.5317 C.3       12 UNK        -0.0944 
      7 S7         31.6073   22.1857   -0.2745 S.3       12 UNK        -0.2672 
      8 C8         31.2044   23.9596   -0.3217 C.3       12 UNK         0.0333 
      9 C9         31.3211   24.6128    1.0456 C.ar      12 UNK        -0.0807 
     10 C10        32.2451   25.6377    1.2733 C.ar      12 UNK        -0.0894 
     11 C11        32.2728   26.3053    2.5021 C.ar      12 UNK        -0.0804 
     12 C12        31.3874   25.9225    3.5145 C.ar      12 UNK        -0.0824 
     13 C13        30.4568   24.9039    3.2945 C.ar      12 UNK        -0.0762 
     14 C14        30.4355   24.2481    2.0619 C.ar      12 UNK        -0.0782 
     15 C15        29.4433   24.5260    4.3631 C.3       12 UNK         0.0230 
     16 S16        27.7580   24.9915    3.8527 S.3       12 UNK        -0.2608 
     17 C17        27.5830   26.6818    4.5225 C.3       12 UNK        -0.0989 
     18 CA         28.4294   27.7849    3.8285 C.3       5 UNK         0.0716 
     19 N          28.4755   27.6383    2.3702 N.am      5 UNK        -0.4135 
     20 C          29.1145   28.4479    1.5130 C.2       4 UNK         0.5031 
     21 O          29.8397   29.3767    1.8636 O.2       4 UNK        -0.5229 
     22 CA         28.8317   28.2645    0.0112 C.3       4 UNK         0.0329 
     23 CB         30.0184   27.6102   -0.7059 C.3       4 UNK        -0.2001 
     24 N          27.6082   27.5130   -0.2841 N.am      4 UNK        -0.4303 
     25 C          26.3680   27.8372    0.1027 C.2       3 UNK         0.5044 
     26 O          26.0998   28.8578    0.7418 O.2       3 UNK        -0.5152 
     27 CA         25.2593   26.8153   -0.1983 C.3       3 UNK         0.0319 
     28 CB         24.7782   26.9271   -1.6577 C.3       3 UNK        -0.2001 
     29 N          25.6028   25.4280    0.1667 N.am      3 UNK        -0.4354 
     30 C          26.5009   24.6001   -0.3914 C.2       2 UNK         0.4964 
     31 O          27.2307   24.9090   -1.3372 O.2       2 UNK        -0.5047 
     32 CA         26.6111   23.1987    0.2285 C.3       2 UNK         0.0288 
     33 CB         25.2556   22.4632    0.2415 C.3       2 UNK        -0.2113 
     34 N          27.5860   22.3984   -0.5147 N.am      2 UNK        -0.4145 
     35 C          28.3634   21.4472    0.0163 C.2       1 UNK         0.5006 
     36 O          28.3688   21.1735    1.2208 O.2       1 UNK        -0.5103 
     37 C          27.9228   29.1752    4.2706 C.2       5 UNK         0.5055 
     38 O          28.4120   29.7045    5.2690 O.2       5 UNK        -0.5220 
     39 N          26.9631   29.7308    3.5164 N.am      6 UNK        -0.4450 
     40 CA         26.4125   31.0685    3.7196 C.3       6 UNK         0.0367 
     41 CB         24.8770   30.9877    3.7241 C.3       6 UNK        -0.1929 
     42 C          26.8906   32.0392    2.6309 C.2       6 UNK         0.5070 
     43 O          27.1805   33.1930    2.9462 O.2       6 UNK        -0.5237 
     44 N          26.9480   31.5767    1.3719 N.am      7 UNK        -0.4739 
     45 CA         27.2463   32.4189    0.2082 C.3       7 UNK         0.0276 
     46 CB         26.7734   31.7131   -1.0736 C.3       7 UNK        -0.1927 
     47 C          28.7185   32.8548    0.0895 C.2       7 UNK         0.5013 
     48 O          28.9771   33.8772   -0.5473 O.2       7 UNK        -0.5193 
     49 N          29.6463   32.0965    0.6882 N.am      8 UNK        -0.4253 
     50 CA         31.0768   32.4123    0.7343 C.3       8 UNK         0.0242 
     51 CB         31.8733   31.3678   -0.0679 C.3       8 UNK        -0.2000 
     52 C          31.5687   32.4884    2.1857 C.2       8 UNK         0.4948 
     53 O          32.2356   33.4616    2.5409 O.2       8 UNK        -0.5275 
     54 N          31.2123   31.4777    2.9930 N.am      9 UNK        -0.4246 
     55 CA         31.5937   31.2773    4.3944 C.3       9 UNK         0.0261 
     56 CB         30.9773   32.3726    5.2939 C.3       9 UNK        -0.1959 
     57 C          33.1180   31.1008    4.5602 C.2       9 UNK         0.5033 
     58 O          33.7677   30.5731    3.6565 O.2       9 UNK        -0.5390 
     59 N          33.6578   31.4818    5.7263 N.am      10 UNK        -0.4215 
     60 CA         35.0697   31.4297    6.1459 C.3       10 UNK         0.0240 
     61 CB         35.9685   32.2558    5.2030 C.3       10 UNK        -0.1982 
     62 C          35.6558   30.0202    6.3757 C.2       10 UNK         0.4970 
     63 O          36.6159   29.9079    7.1396 O.2       10 UNK        -0.4916 
     64 N          35.0884   28.9818    5.7480 N.am      11 UNK        -0.4279 
     65 CA         35.4361   27.5639    5.9437 C.3       11 UNK         0.1003 
     66 C          35.2863   27.0993    7.4201 C.2       11 UNK         0.5709 
     67 N          36.1861   26.2516    7.9002 N.am      11 UNK        -0.7358 
     68 O          34.3387   27.4647    8.1142 O.2       11 UNK        -0.4999 
     69 C69        34.6101   26.6338    5.0167 C.3       12 UNK        -0.0954 
     70 S70        34.8714   26.9685    3.2430 S.3       12 UNK        -0.2268 
     71 C71        33.2103   27.4853    2.7092 C.3       12 UNK         0.0203 
     72 H72        29.2256   16.9132    1.4344 H         1 UNK         0.0888 
     73 H73        29.8566   16.2995   -0.0969 H         1 UNK         0.0888 
     74 H74        30.8064   17.4419    0.8554 H         1 UNK         0.0888 
     75 H75        30.7284   19.5351    0.0575 H         1 UNK         0.3017 
     76 H76        28.6644   20.3845   -1.8069 H         1 UNK         0.0873 
     77 H77        31.0206   20.9525   -2.2395 H         1 UNK         0.0745 
     78 H78        30.0396   22.3697   -2.1266 H         1 UNK         0.0745 
     79 H79        31.8505   24.4509   -1.0509 H         1 UNK         0.0705 
     80 H80        30.1811   24.1044   -0.6709 H         1 UNK         0.0705 
     81 H81        32.9178   25.9438    0.4838 H         1 UNK         0.1334 
     82 H82        31.3979   26.4413    4.4623 H         1 UNK         0.1417 
     83 H83        29.7064   23.4691    1.8845 H         1 UNK         0.1562 
     84 H84        29.6858   24.9827    5.3238 H         1 UNK         0.0748 
     85 H85        29.4782   23.4466    4.5179 H         1 UNK         0.0748 
     86 H86        27.8059   26.6572    5.5911 H         1 UNK         0.0940 
     87 H87        26.5190   26.9191    4.4526 H         1 UNK         0.0940 
     88 H88        29.4557   27.7061    4.1844 H         1 UNK         0.0703 
     89 H89        27.9323   26.8768    1.9932 H         1 UNK         0.3081 
     90 H90        28.7133   29.2662   -0.4004 H         1 UNK         0.0719 
     91 H91        30.0928   26.5545   -0.4579 H         1 UNK         0.0809 
     92 H92        29.9180   27.6904   -1.7883 H         1 UNK         0.0809 
     93 H93        30.9625   28.0829   -0.4312 H         1 UNK         0.0809 
     94 H94        27.7126   26.6388   -0.7942 H         1 UNK         0.2990 
     95 H95        24.4150   27.0833    0.4392 H         1 UNK         0.0690 
     96 H96        23.9469   26.2497   -1.8530 H         1 UNK         0.0788 
     97 H97        25.5699   26.7000   -2.3722 H         1 UNK         0.0788 
     98 H98        24.4300   27.9380   -1.8742 H         1 UNK         0.0788 
     99 H99        25.0824   25.0692    0.9558 H         1 UNK         0.2993 
    100 H100       26.9589   23.3322    1.2555 H         1 UNK         0.0949 
    101 H101       25.3540   21.4617    0.6614 H         1 UNK         0.0767 
    102 H102       24.5170   22.9877    0.8483 H         1 UNK         0.0767 
    103 H103       24.8443   22.3625   -0.7638 H         1 UNK         0.0767 
    104 H104       27.6813   22.6486   -1.4907 H         1 UNK         0.3013 
    105 H105       26.6392   29.2314    2.6949 H         1 UNK         0.3121 
    106 H106       26.7315   31.4710    4.6837 H         1 UNK         0.0774 
    107 H107       24.4884   30.5893    2.7858 H         1 UNK         0.0815 
    108 H108       24.4346   31.9743    3.8690 H         1 UNK         0.0815 
    109 H109       24.5179   30.3503    4.5322 H         1 UNK         0.0815 
    110 H110       26.6568   30.6224    1.1774 H         1 UNK         0.2987 
    111 H111       26.6598   33.3353    0.3088 H         1 UNK         0.0949 
    112 H112       27.3126   30.7856   -1.2565 H         1 UNK         0.0806 
    113 H113       25.7104   31.4761   -1.0261 H         1 UNK         0.0806 
    114 H114       26.9226   32.3507   -1.9461 H         1 UNK         0.0806 
    115 H115       29.3500   31.2762    1.2034 H         1 UNK         0.3010 
    116 H116       31.2645   33.3897    0.2846 H         1 UNK         0.0829 
    117 H117       31.5493   31.3373   -1.1082 H         1 UNK         0.0813 
    118 H118       32.9374   31.6073   -0.0651 H         1 UNK         0.0813 
    119 H119       31.7678   30.3646    0.3447 H         1 UNK         0.0813 
    120 H120       30.7205   30.6888    2.5724 H         1 UNK         0.3038 
    121 H121       31.1486   30.3244    4.6844 H         1 UNK         0.0769 
    122 H122       31.0591   32.1167    6.3506 H         1 UNK         0.0811 
    123 H123       31.4558   33.3414    5.1453 H         1 UNK         0.0811 
    124 H124       29.9139   32.4936    5.0843 H         1 UNK         0.0811 
    125 H125       33.0268   31.8649    6.4169 H         1 UNK         0.3204 
    126 H126       35.0930   31.9201    7.1204 H         1 UNK         0.0748 
    127 H127       36.9845   32.3234    5.5941 H         1 UNK         0.0771 
    128 H128       36.0356   31.8120    4.2093 H         1 UNK         0.0771 
    129 H129       35.5963   33.2742    5.0910 H         1 UNK         0.0771 
    130 H130       34.3737   29.1829    5.0606 H         1 UNK         0.2980 
    131 H131       36.4884   27.4642    5.6703 H         1 UNK         0.0545 
    132 H132       36.9589   25.9353    7.3351 H         1 UNK         0.3459 
    133 H133       36.0951   25.9274    8.8503 H         1 UNK         0.3459 
    134 H134       34.8817   25.5899    5.1851 H         1 UNK         0.0616 
    135 H135       33.5503   26.7108    5.2596 H         1 UNK         0.0616 
    136 H136       32.7846   28.1756    3.4373 H         1 UNK         0.0634 
    137 H137       33.3001   28.0496    1.7796 H         1 UNK         0.0634 
@<TRIPOS>BOND
     1    1    2 1    
     2    1   72 1    
     3    1   73 1    
     4    1   74 1    
     5    2    3 2    
     6    2    4 am   BACKBONE|DICT|INTERRES
     7    4    5 1    
     8    4   75 1    
     9    5    6 1    
    10    5   35 1    
    11    5   76 1    
    12    6    7 1    
    13    6   77 1    
    14    6   78 1    
    15    7    8 1    
    16    8    9 1    
    17    8   79 1    
    18    8   80 1    
    19    9   10 ar   
    20    9   14 ar   
    21   10   11 ar   
    22   10   81 1    
    23   11   12 ar   
    24   11   71 1    
    25   12   13 ar   
    26   12   82 1    
    27   13   14 ar   
    28   13   15 1    
    29   14   83 1    
    30   15   16 1    
    31   15   84 1    
    32   15   85 1    
    33   16   17 1    
    34   17   18 1    
    35   17   86 1    
    36   17   87 1    
    37   18   19 1    
    38   18   37 1    
    39   18   88 1    
    40   19   20 am   BACKBONE|DICT|INTERRES
    41   19   89 1    
    42   20   21 2    
    43   20   22 1    
    44   22   23 1    
    45   22   24 1    
    46   22   90 1    
    47   23   91 1    
    48   23   92 1    
    49   23   93 1    
    50   24   25 am   BACKBONE|DICT|INTERRES
    51   24   94 1    
    52   25   26 2    
    53   25   27 1    
    54   27   28 1    
    55   27   29 1    
    56   27   95 1    
    57   28   96 1    
    58   28   97 1    
    59   28   98 1    
    60   29   30 am   BACKBONE|DICT|INTERRES
    61   29   99 1    
    62   30   31 2    
    63   30   32 1    
    64   32   33 1    
    65   32   34 1    
    66   32  100 1    
    67   33  101 1    
    68   33  102 1    
    69   33  103 1    
    70   34   35 am   BACKBONE|DICT|INTERRES
    71   34  104 1    
    72   35   36 2    
    73   37   38 2    
    74   37   39 am   BACKBONE|DICT|INTERRES
    75   39   40 1    
    76   39  105 1    
    77   40   41 1    
    78   40   42 1    
    79   40  106 1    
    80   41  107 1    
    81   41  108 1    
    82   41  109 1    
    83   42   43 2    
    84   42   44 am   BACKBONE|DICT|INTERRES
    85   44   45 1    
    86   44  110 1    
    87   45   46 1    
    88   45   47 1    
    89   45  111 1    
    90   46  112 1    
    91   46  113 1    
    92   46  114 1    
    93   47   48 2    
    94   47   49 am   BACKBONE|DICT|INTERRES
    95   49   50 1    
    96   49  115 1    
    97   50   51 1    
    98   50   52 1    
    99   50  116 1    
   100   51  117 1    
   101   51  118 1    
   102   51  119 1    
   103   52   53 2    
   104   52   54 am   BACKBONE|DICT|INTERRES
   105   54   55 1    
   106   54  120 1    
   107   55   56 1    
   108   55   57 1    
   109   55  121 1    
   110   56  122 1    
   111   56  123 1    
   112   56  124 1    
   113   57   58 2    
   114   57   59 am   BACKBONE|DICT|INTERRES
   115   59   60 1    
   116   59  125 1    
   117   60   61 1    
   118   60   62 1    
   119   60  126 1    
   120   61  127 1    
   121   61  128 1    
   122   61  129 1    
   123   62   63 2    
   124   62   64 am   BACKBONE|DICT|INTERRES
   125   64   65 1    
   126   64  130 1    
   127   65   66 1    
   128   65   69 1    
   129   65  131 1    
   130   66   67 am   BACKBONE|DICT|INTERRES
   131   66   68 2    
   132   67  132 1    
   133   67  133 1    
   134   69   70 1    
   135   69  134 1    
   136   69  135 1    
   137   70   71 1    
   138   71  136 1    
   139   71  137 1    
@<TRIPOS>SUBSTRUCTURE
     1 UNK         1 GROUP             0       ****    0 ROOT    
