@<TRIPOS>MOLECULE
3R136
137   139    1
SMALL
USER_CHARGES


@<TRIPOS>ATOM
      1 CA         30.9412   25.0764   -3.2305 C.3       0 UNK        -0.1979 
      2 C          30.1130   24.7076   -2.0101 C.2       0 UNK         0.4864 
      3 O          29.2990   25.5154   -1.5619 O.2       0 UNK        -0.5359 
      4 N          30.2963   23.4872   -1.4864 N.am      1 UNK        -0.4318 
      5 CA         29.6986   22.9299   -0.2588 C.3       1 UNK         0.0824 
      6 C6         30.1162   21.4494   -0.0725 C.3       12 UNK        -0.0944 
      7 S7         31.9201   21.2442    0.1172 S.3       12 UNK        -0.2672 
      8 C8         32.0515   20.6063    1.8187 C.3       12 UNK         0.0333 
      9 C9         31.9451   21.7137    2.8580 C.ar      12 UNK        -0.0807 
     10 C10        33.1033   22.3302    3.3442 C.ar      12 UNK        -0.0894 
     11 C11        33.0178   23.3270    4.3206 C.ar      12 UNK        -0.0804 
     12 C12        31.7666   23.7032    4.8131 C.ar      12 UNK        -0.0824 
     13 C13        30.6009   23.1171    4.3146 C.ar      12 UNK        -0.0762 
     14 C14        30.6961   22.1132    3.3465 C.ar      12 UNK        -0.0782 
     15 C15        29.2400   23.5784    4.8145 C.3       12 UNK         0.0230 
     16 S16        28.6150   24.9857    3.8423 S.3       12 UNK        -0.2608 
     17 C17        29.7017   26.3382    4.4257 C.3       12 UNK        -0.0989 
     18 CA         29.2740   27.7460    3.9427 C.3       5 UNK         0.0716 
     19 N          29.2464   27.8056    2.4821 N.am      5 UNK        -0.4135 
     20 C          29.9712   28.6155    1.7046 C.2       4 UNK         0.5031 
     21 O          30.8518   29.3698    2.1243 O.2       4 UNK        -0.5229 
     22 CA         29.6663   28.5874    0.1924 C.3       4 UNK         0.0329 
     23 CB         30.8964   28.1269   -0.6045 C.3       4 UNK        -0.2001 
     24 N          28.5086   27.7707   -0.2071 N.am      4 UNK        -0.4303 
     25 C          27.2326   28.0603    0.0809 C.2       3 UNK         0.5044 
     26 O          26.9163   28.9657    0.8525 O.2       3 UNK        -0.5152 
     27 CA         26.1125   27.2304   -0.5604 C.3       3 UNK         0.0319 
     28 CB         25.5839   27.9393   -1.8202 C.3       3 UNK        -0.2001 
     29 N          26.4727   25.8428   -0.8803 N.am      3 UNK        -0.4354 
     30 C          25.5795   24.8380   -0.8770 C.2       2 UNK         0.4964 
     31 O          24.4042   24.9775   -0.5343 O.2       2 UNK        -0.5047 
     32 CA         26.0276   23.4444   -1.3608 C.3       2 UNK         0.0288 
     33 CB         25.5657   23.2100   -2.8090 C.3       2 UNK        -0.2113 
     34 N          27.4688   23.2179   -1.2845 N.am      2 UNK        -0.4145 
     35 C          28.1601   23.0488   -0.1497 C.2       1 UNK         0.5006 
     36 O          27.6302   22.9797    0.9598 O.2       1 UNK        -0.5103 
     37 C          27.9332   28.2018    4.5681 C.2       5 UNK         0.5055 
     38 O          27.8014   28.1389    5.7924 O.2       5 UNK        -0.5220 
     39 N          26.9642   28.6353    3.7453 N.am      6 UNK        -0.4450 
     40 CA         25.6380   29.0882    4.1739 C.3       6 UNK         0.0367 
     41 CB         24.5652   28.1486    3.5969 C.3       6 UNK        -0.1929 
     42 C          25.3862   30.5378    3.7376 C.2       6 UNK         0.5070 
     43 O          24.9851   31.3595    4.5615 O.2       6 UNK        -0.5237 
     44 N          25.6419   30.8338    2.4567 N.am      7 UNK        -0.4739 
     45 CA         25.5404   32.1696    1.8600 C.3       7 UNK         0.0276 
     46 CB         25.1710   32.0107    0.3752 C.3       7 UNK        -0.1927 
     47 C          26.8421   32.9803    2.0060 C.2       7 UNK         0.5013 
     48 O          26.8570   34.1681    1.6801 O.2       7 UNK        -0.5193 
     49 N          27.9062   32.3268    2.4790 N.am      8 UNK        -0.4253 
     50 CA         29.2364   32.8638    2.7320 C.3       8 UNK         0.0242 
     51 CB         30.0522   32.8661    1.4219 C.3       8 UNK        -0.2000 
     52 C          29.8815   32.0027    3.8288 C.2       8 UNK         0.4948 
     53 O          29.2012   31.1650    4.4263 O.2       8 UNK        -0.5275 
     54 N          31.1796   32.2062    4.0661 N.am      9 UNK        -0.4246 
     55 CA         31.9997   31.3895    4.9580 C.3       9 UNK         0.0261 
     56 CB         32.1111   32.0695    6.3362 C.3       9 UNK        -0.1959 
     57 C          33.3557   31.1559    4.2816 C.2       9 UNK         0.5033 
     58 O          34.3936   31.5408    4.8245 O.2       9 UNK        -0.5390 
     59 N          33.3217   30.5569    3.0818 N.am      10 UNK        -0.4215 
     60 CA         34.4866   30.3609    2.2075 C.3       10 UNK         0.0240 
     61 CB         34.0209   29.7761    0.8672 C.3       10 UNK        -0.1982 
     62 C          35.6059   29.4910    2.8075 C.2       10 UNK         0.4970 
     63 O          36.7639   29.6524    2.4200 O.2       10 UNK        -0.4916 
     64 N          35.2476   28.6030    3.7418 N.am      11 UNK        -0.4279 
     65 CA         36.1820   27.7710    4.5137 C.3       11 UNK         0.1003 
     66 C          36.9845   28.5506    5.5984 C.2       11 UNK         0.5709 
     67 N          36.6636   29.8035    5.9057 N.am      11 UNK        -0.7358 
     68 O          37.9264   28.0061    6.1694 O.2       11 UNK        -0.4999 
     69 C69        35.4746   26.5348    5.1288 C.3       12 UNK        -0.0954 
     70 S70        34.5775   25.5419    3.8910 S.3       12 UNK        -0.2268 
     71 C71        34.2664   24.0219    4.8356 C.3       12 UNK         0.0203 
     72 H72        31.5940   25.9173   -2.9973 H         1 UNK         0.0888 
     73 H73        31.5621   24.2466   -3.5688 H         1 UNK         0.0888 
     74 H74        30.2877   25.3694   -4.0521 H         1 UNK         0.0888 
     75 H75        30.9813   22.8820   -1.9173 H         1 UNK         0.3017 
     76 H76        30.1029   23.5086    0.5747 H         1 UNK         0.0873 
     77 H77        29.6130   21.0029    0.7862 H         1 UNK         0.0745 
     78 H78        29.7993   20.8573   -0.9333 H         1 UNK         0.0745 
     79 H79        31.2917   19.8431    1.9934 H         1 UNK         0.0705 
     80 H80        33.0113   20.0977    1.9221 H         1 UNK         0.0705 
     81 H81        34.0711   22.0372    2.9604 H         1 UNK         0.1334 
     82 H82        31.7002   24.4766    5.5659 H         1 UNK         0.1417 
     83 H83        29.7936   21.6514    2.9714 H         1 UNK         0.1562 
     84 H84        29.2910   23.8506    5.8698 H         1 UNK         0.0748 
     85 H85        28.5217   22.7600    4.7464 H         1 UNK         0.0748 
     86 H86        30.7122   26.1425    4.0649 H         1 UNK         0.0940 
     87 H87        29.7622   26.3087    5.5153 H         1 UNK         0.0940 
     88 H88        30.0162   28.4546    4.3154 H         1 UNK         0.0703 
     89 H89        28.5942   27.1790    2.0337 H         1 UNK         0.3081 
     90 H90        29.4478   29.6171   -0.0979 H         1 UNK         0.0719 
     91 H91        31.7240   28.8219   -0.4775 H         1 UNK         0.0809 
     92 H92        30.6848   28.0804   -1.6728 H         1 UNK         0.0809 
     93 H93        31.2386   27.1420   -0.2845 H         1 UNK         0.0809 
     94 H94        28.7249   26.9739   -0.8056 H         1 UNK         0.2990 
     95 H95        25.3087   27.2204    0.1789 H         1 UNK         0.0690 
     96 H96        24.6874   27.4523   -2.2040 H         1 UNK         0.0788 
     97 H97        26.3284   27.9477   -2.6171 H         1 UNK         0.0788 
     98 H98        25.3196   28.9762   -1.6065 H         1 UNK         0.0788 
     99 H99        27.4326   25.6548   -1.1588 H         1 UNK         0.2993 
    100 H100       25.5351   22.7079   -0.7218 H         1 UNK         0.0949 
    101 H101       24.4857   23.3353   -2.9000 H         1 UNK         0.0767 
    102 H102       26.0344   23.9117   -3.5004 H         1 UNK         0.0767 
    103 H103       25.8014   22.1992   -3.1427 H         1 UNK         0.0767 
    104 H104       27.9867   23.2751   -2.1490 H         1 UNK         0.3013 
    105 H105       27.1580   28.7048    2.7518 H         1 UNK         0.3121 
    106 H106       25.5565   29.0618    5.2625 H         1 UNK         0.0774 
    107 H107       23.5658   28.4681    3.8952 H         1 UNK         0.0815 
    108 H108       24.5885   28.1222    2.5071 H         1 UNK         0.0815 
    109 H109       24.7007   27.1289    3.9576 H         1 UNK         0.0815 
    110 H110       25.9903   30.1026    1.8380 H         1 UNK         0.2987 
    111 H111       24.7458   32.7314    2.3560 H         1 UNK         0.0949 
    112 H112       24.2323   31.4696    0.2558 H         1 UNK         0.0806 
    113 H113       25.0472   32.9827   -0.1043 H         1 UNK         0.0806 
    114 H114       25.9418   31.4701   -0.1759 H         1 UNK         0.0806 
    115 H115       27.7775   31.3813    2.8163 H         1 UNK         0.3010 
    116 H116       29.1468   33.8827    3.1143 H         1 UNK         0.0829 
    117 H117       29.5373   33.4183    0.6356 H         1 UNK         0.0813 
    118 H118       31.0249   33.3400    1.5541 H         1 UNK         0.0813 
    119 H119       30.2266   31.8540    1.0555 H         1 UNK         0.0813 
    120 H120       31.6761   32.9006    3.5247 H         1 UNK         0.3038 
    121 H121       31.5465   30.4051    5.0944 H         1 UNK         0.0769 
    122 H122       32.5635   33.0591    6.2624 H         1 UNK         0.0811 
    123 H123       32.7255   31.4774    7.0156 H         1 UNK         0.0811 
    124 H124       31.1313   32.1826    6.8003 H         1 UNK         0.0811 
    125 H125       32.4224   30.2349    2.7233 H         1 UNK         0.3204 
    126 H126       34.9162   31.3465    2.0169 H         1 UNK         0.0748 
    127 H127       34.8568   29.6630    0.1753 H         1 UNK         0.0771 
    128 H128       33.5703   28.7917    0.9998 H         1 UNK         0.0771 
    129 H129       33.2886   30.4254    0.3871 H         1 UNK         0.0771 
    130 H130       34.2733   28.5261    3.9889 H         1 UNK         0.2980 
    131 H131       36.9289   27.3945    3.8122 H         1 UNK         0.0545 
    132 H132       35.8971   30.2804    5.4445 H         1 UNK         0.3459 
    133 H133       37.2004   30.2872    6.6075 H         1 UNK         0.3459 
    134 H134       36.2038   25.8873    5.6198 H         1 UNK         0.0616 
    135 H135       34.7650   26.8436    5.8987 H         1 UNK         0.0616 
    136 H136       35.1343   23.3654    4.7639 H         1 UNK         0.0634 
    137 H137       34.1430   24.2606    5.8929 H         1 UNK         0.0634 
@<TRIPOS>BOND
     1    1    2 1    
     2    1   72 1    
     3    1   73 1    
     4    1   74 1    
     5    2    3 2    
     6    2    4 am   BACKBONE|DICT|INTERRES
     7    4    5 1    
     8    4   75 1    
     9    5    6 1    
    10    5   35 1    
    11    5   76 1    
    12    6    7 1    
    13    6   77 1    
    14    6   78 1    
    15    7    8 1    
    16    8    9 1    
    17    8   79 1    
    18    8   80 1    
    19    9   10 ar   
    20    9   14 ar   
    21   10   11 ar   
    22   10   81 1    
    23   11   12 ar   
    24   11   71 1    
    25   12   13 ar   
    26   12   82 1    
    27   13   14 ar   
    28   13   15 1    
    29   14   83 1    
    30   15   16 1    
    31   15   84 1    
    32   15   85 1    
    33   16   17 1    
    34   17   18 1    
    35   17   86 1    
    36   17   87 1    
    37   18   19 1    
    38   18   37 1    
    39   18   88 1    
    40   19   20 am   BACKBONE|DICT|INTERRES
    41   19   89 1    
    42   20   21 2    
    43   20   22 1    
    44   22   23 1    
    45   22   24 1    
    46   22   90 1    
    47   23   91 1    
    48   23   92 1    
    49   23   93 1    
    50   24   25 am   BACKBONE|DICT|INTERRES
    51   24   94 1    
    52   25   26 2    
    53   25   27 1    
    54   27   28 1    
    55   27   29 1    
    56   27   95 1    
    57   28   96 1    
    58   28   97 1    
    59   28   98 1    
    60   29   30 am   BACKBONE|DICT|INTERRES
    61   29   99 1    
    62   30   31 2    
    63   30   32 1    
    64   32   33 1    
    65   32   34 1    
    66   32  100 1    
    67   33  101 1    
    68   33  102 1    
    69   33  103 1    
    70   34   35 am   BACKBONE|DICT|INTERRES
    71   34  104 1    
    72   35   36 2    
    73   37   38 2    
    74   37   39 am   BACKBONE|DICT|INTERRES
    75   39   40 1    
    76   39  105 1    
    77   40   41 1    
    78   40   42 1    
    79   40  106 1    
    80   41  107 1    
    81   41  108 1    
    82   41  109 1    
    83   42   43 2    
    84   42   44 am   BACKBONE|DICT|INTERRES
    85   44   45 1    
    86   44  110 1    
    87   45   46 1    
    88   45   47 1    
    89   45  111 1    
    90   46  112 1    
    91   46  113 1    
    92   46  114 1    
    93   47   48 2    
    94   47   49 am   BACKBONE|DICT|INTERRES
    95   49   50 1    
    96   49  115 1    
    97   50   51 1    
    98   50   52 1    
    99   50  116 1    
   100   51  117 1    
   101   51  118 1    
   102   51  119 1    
   103   52   53 2    
   104   52   54 am   BACKBONE|DICT|INTERRES
   105   54   55 1    
   106   54  120 1    
   107   55   56 1    
   108   55   57 1    
   109   55  121 1    
   110   56  122 1    
   111   56  123 1    
   112   56  124 1    
   113   57   58 2    
   114   57   59 am   BACKBONE|DICT|INTERRES
   115   59   60 1    
   116   59  125 1    
   117   60   61 1    
   118   60   62 1    
   119   60  126 1    
   120   61  127 1    
   121   61  128 1    
   122   61  129 1    
   123   62   63 2    
   124   62   64 am   BACKBONE|DICT|INTERRES
   125   64   65 1    
   126   64  130 1    
   127   65   66 1    
   128   65   69 1    
   129   65  131 1    
   130   66   67 am   BACKBONE|DICT|INTERRES
   131   66   68 2    
   132   67  132 1    
   133   67  133 1    
   134   69   70 1    
   135   69  134 1    
   136   69  135 1    
   137   70   71 1    
   138   71  136 1    
   139   71  137 1    
@<TRIPOS>SUBSTRUCTURE
     1 UNK         1 GROUP             0       ****    0 ROOT    
