@<TRIPOS>MOLECULE
3R136
137   139    1
SMALL
USER_CHARGES


@<TRIPOS>ATOM
      1 CA         34.8404   25.2940    1.3384 C.3       0 UNK        -0.1979 
      2 C          33.4402   25.7876    1.0051 C.2       0 UNK         0.4864 
      3 O          33.1203   26.9466    1.2721 O.2       0 UNK        -0.5359 
      4 N          32.6000   24.9136    0.4353 N.am      1 UNK        -0.4318 
      5 CA         31.2255   25.2325    0.0458 C.3       1 UNK         0.0824 
      6 C6         30.3505   23.9602   -0.1119 C.3       12 UNK        -0.0944 
      7 S7         28.6895   24.1979    0.6020 S.3       12 UNK        -0.2672 
      8 C8         28.6405   22.8863    1.8645 C.3       12 UNK         0.0333 
      9 C9         29.2629   23.3150    3.1885 C.ar      12 UNK        -0.0807 
     10 C10        30.6519   23.3794    3.3423 C.ar      12 UNK        -0.0894 
     11 C11        31.2266   23.7089    4.5739 C.ar      12 UNK        -0.0804 
     12 C12        30.3864   23.9730    5.6643 C.ar      12 UNK        -0.0824 
     13 C13        28.9958   23.9046    5.5290 C.ar      12 UNK        -0.0762 
     14 C14        28.4421   23.5811    4.2874 C.ar      12 UNK        -0.0782 
     15 C15        28.0969   24.1134    6.7410 C.3       12 UNK         0.0230 
     16 S16        27.5241   25.8342    6.8969 S.3       12 UNK        -0.2608 
     17 C17        26.2071   25.9246    5.6341 C.3       12 UNK        -0.0989 
     18 CA         26.6520   26.7129    4.3753 C.3       5 UNK         0.0716 
     19 N          25.9415   26.2605    3.1679 N.am      5 UNK        -0.4135 
     20 C          26.1387   26.7233    1.9249 C.2       4 UNK         0.5031 
     21 O          26.8859   27.6670    1.6492 O.2       4 UNK        -0.5229 
     22 CA         25.3419   26.0484    0.8026 C.3       4 UNK         0.0329 
     23 CB         23.8521   26.4332    0.8675 C.3       4 UNK        -0.2001 
     24 N          25.9089   26.4843   -0.4691 N.am      4 UNK        -0.4303 
     25 C          25.8638   25.8240   -1.6318 C.2       3 UNK         0.5044 
     26 O          25.2874   24.7485   -1.7948 O.2       3 UNK        -0.5152 
     27 CA         26.6012   26.4769   -2.8085 C.3       3 UNK         0.0319 
     28 CB         25.7396   27.6120   -3.4027 C.3       3 UNK        -0.2001 
     29 N          27.9126   26.9631   -2.3698 N.am      3 UNK        -0.4354 
     30 C          28.8680   27.4944   -3.1464 C.2       2 UNK         0.4964 
     31 O          28.7693   27.6300   -4.3660 O.2       2 UNK        -0.5047 
     32 CA         30.1585   27.9564   -2.4470 C.3       2 UNK         0.0288 
     33 CB         30.0536   29.4396   -2.0664 C.3       2 UNK        -0.2113 
     34 N          30.4421   27.1661   -1.2456 N.am      2 UNK        -0.4145 
     35 C          31.2059   26.0666   -1.2474 C.2       1 UNK         0.5006 
     36 O          31.8411   25.6696   -2.2281 O.2       1 UNK        -0.5103 
     37 C          26.5827   28.2392    4.6162 C.2       5 UNK         0.5055 
     38 O          27.5586   28.8268    5.0824 O.2       5 UNK        -0.5220 
     39 N          25.4527   28.8623    4.2509 N.am      6 UNK        -0.4450 
     40 CA         25.2357   30.3105    4.3253 C.3       6 UNK         0.0367 
     41 CB         23.7577   30.6127    4.0296 C.3       6 UNK        -0.1929 
     42 C          26.1463   31.1326    3.3911 C.2       6 UNK         0.5070 
     43 O          26.3990   32.3016    3.6835 O.2       6 UNK        -0.5237 
     44 N          26.6152   30.5219    2.2946 N.am      7 UNK        -0.4739 
     45 CA         27.5083   31.1359    1.3094 C.3       7 UNK         0.0276 
     46 CB         26.9444   30.8577   -0.0946 C.3       7 UNK        -0.1927 
     47 C          28.9526   30.6154    1.4206 C.2       7 UNK         0.5013 
     48 O          29.8376   31.1753    0.7724 O.2       7 UNK        -0.5193 
     49 N          29.1775   29.5554    2.2103 N.am      8 UNK        -0.4253 
     50 CA         30.4419   28.8324    2.3777 C.3       8 UNK         0.0242 
     51 CB         30.1408   27.4653    3.0216 C.3       8 UNK        -0.2000 
     52 C          31.5065   29.6224    3.1652 C.2       8 UNK         0.4948 
     53 O          32.0091   29.1409    4.1808 O.2       8 UNK        -0.5275 
     54 N          31.8552   30.8202    2.6788 N.am      9 UNK        -0.4246 
     55 CA         32.8578   31.7162    3.2649 C.3       9 UNK         0.0261 
     56 CB         32.8799   33.0390    2.4830 C.3       9 UNK        -0.1959 
     57 C          34.2668   31.1011    3.3319 C.2       9 UNK         0.5033 
     58 O          34.9940   31.3555    4.2932 O.2       9 UNK        -0.5390 
     59 N          34.6094   30.2653    2.3409 N.am      10 UNK        -0.4215 
     60 CA         35.8604   29.5045    2.2873 C.3       10 UNK         0.0240 
     61 CB         36.0670   28.9600    0.8643 C.3       10 UNK        -0.1982 
     62 C          35.9521   28.3818    3.3404 C.2       10 UNK         0.4970 
     63 O          37.0596   27.9142    3.6078 O.2       10 UNK        -0.4916 
     64 N          34.8180   27.9858    3.9366 N.am      11 UNK        -0.4279 
     65 CA         34.7581   27.0943    5.1032 C.3       11 UNK         0.1003 
     66 C          35.1716   27.7874    6.4389 C.2       11 UNK         0.5709 
     67 N          35.3020   29.1095    6.4991 N.am      11 UNK        -0.7358 
     68 O          35.4048   27.1133    7.4389 O.2       11 UNK        -0.4999 
     69 C69        33.3695   26.4027    5.2033 C.3       12 UNK        -0.0954 
     70 S70        33.4469   24.7630    5.9965 S.3       12 UNK        -0.2268 
     71 C71        32.7513   23.6772    4.7048 C.3       12 UNK         0.0203 
     72 H72        35.0391   25.4230    2.4017 H         1 UNK         0.0888 
     73 H73        34.9690   24.2392    1.0968 H         1 UNK         0.0888 
     74 H74        35.5834   25.8627    0.7809 H         1 UNK         0.0888 
     75 H75        32.9306   23.9937    0.1822 H         1 UNK         0.3017 
     76 H76        30.8134   25.8405    0.8514 H         1 UNK         0.0873 
     77 H77        30.2341   23.6587   -1.1555 H         1 UNK         0.0745 
     78 H78        30.8239   23.1006    0.3606 H         1 UNK         0.0745 
     79 H79        27.5966   22.6071    2.0154 H         1 UNK         0.0705 
     80 H80        29.1330   21.9861    1.4945 H         1 UNK         0.0705 
     81 H81        31.2964   23.1422    2.5098 H         1 UNK         0.1334 
     82 H82        30.8097   24.2006    6.6325 H         1 UNK         0.1417 
     83 H83        27.3694   23.5046    4.1827 H         1 UNK         0.1562 
     84 H84        28.6399   23.8496    7.6499 H         1 UNK         0.0748 
     85 H85        27.2412   23.4376    6.7025 H         1 UNK         0.0748 
     86 H86        25.3160   26.3666    6.0850 H         1 UNK         0.0940 
     87 H87        25.9135   24.9084    5.3706 H         1 UNK         0.0940 
     88 H88        27.6994   26.4738    4.1870 H         1 UNK         0.0703 
     89 H89        25.2845   25.5048    3.2956 H         1 UNK         0.3081 
     90 H90        25.4568   24.9666    0.8999 H         1 UNK         0.0719 
     91 H91        23.7117   27.5123    0.7906 H         1 UNK         0.0809 
     92 H92        23.2880   25.9669    0.0595 H         1 UNK         0.0809 
     93 H93        23.3966   26.1082    1.8034 H         1 UNK         0.0809 
     94 H94        26.4153   27.3572   -0.3983 H         1 UNK         0.2990 
     95 H95        26.7585   25.7123   -3.5720 H         1 UNK         0.0690 
     96 H96        26.1577   27.9937   -4.3336 H         1 UNK         0.0788 
     97 H97        25.6427   28.4502   -2.7118 H         1 UNK         0.0788 
     98 H98        24.7328   27.2591   -3.6311 H         1 UNK         0.0788 
     99 H99        28.1203   26.8115   -1.3939 H         1 UNK         0.2993 
    100 H100       30.9782   27.8533   -3.1620 H         1 UNK         0.0949 
    101 H101       30.9604   29.7913   -1.5735 H         1 UNK         0.0767 
    102 H102       29.9021   30.0605   -2.9504 H         1 UNK         0.0767 
    103 H103       29.2157   29.6199   -1.3958 H         1 UNK         0.0767 
    104 H104       29.9799   27.4439   -0.3927 H         1 UNK         0.3013 
    105 H105       24.6994   28.3081    3.8708 H         1 UNK         0.3121 
    106 H106       25.4517   30.6267    5.3482 H         1 UNK         0.0774 
    107 H107       23.5557   31.6821    4.1060 H         1 UNK         0.0815 
    108 H108       23.4746   30.2996    3.0237 H         1 UNK         0.0815 
    109 H109       23.0987   30.1103    4.7380 H         1 UNK         0.0815 
    110 H110       26.3932   29.5432    2.1412 H         1 UNK         0.2987 
    111 H111       27.5472   32.2182    1.4509 H         1 UNK         0.0949 
    112 H112       26.9172   29.7902   -0.3161 H         1 UNK         0.0806 
    113 H113       25.9311   31.2460   -0.1975 H         1 UNK         0.0806 
    114 H114       27.5513   31.3389   -0.8628 H         1 UNK         0.0806 
    115 H115       28.3867   29.1779    2.7141 H         1 UNK         0.3010 
    116 H116       30.8591   28.6497    1.3858 H         1 UNK         0.0829 
    117 H117       29.3846   26.9122    2.4654 H         1 UNK         0.0813 
    118 H118       31.0335   26.8419    3.0538 H         1 UNK         0.0813 
    119 H119       29.7928   27.5744    4.0492 H         1 UNK         0.0813 
    120 H120       31.3496   31.1506    1.8591 H         1 UNK         0.3038 
    121 H121       32.5461   31.9287    4.2897 H         1 UNK         0.0769 
    122 H122       33.1535   32.8867    1.4382 H         1 UNK         0.0811 
    123 H123       33.6026   33.7344    2.9125 H         1 UNK         0.0811 
    124 H124       31.9066   33.5295    2.5063 H         1 UNK         0.0811 
    125 H125       33.9384   30.0924    1.6059 H         1 UNK         0.3204 
    126 H126       36.6786   30.1962    2.4992 H         1 UNK         0.0748 
    127 H127       36.1677   29.7714    0.1433 H         1 UNK         0.0771 
    128 H128       36.9750   28.3586    0.8005 H         1 UNK         0.0771 
    129 H129       35.2358   28.3333    0.5442 H         1 UNK         0.0771 
    130 H130       33.9405   28.4249    3.6836 H         1 UNK         0.2980 
    131 H131       35.5006   26.3129    4.9302 H         1 UNK         0.0545 
    132 H132       35.5791   29.5337    7.3697 H         1 UNK         0.3459 
    133 H133       35.1291   29.6919    5.6899 H         1 UNK         0.3459 
    134 H134       32.9504   26.2708    4.2057 H         1 UNK         0.0616 
    135 H135       32.6519   27.0240    5.7421 H         1 UNK         0.0616 
    136 H136       33.2209   23.9230    3.7511 H         1 UNK         0.0634 
    137 H137       33.0453   22.6523    4.9339 H         1 UNK         0.0634 
@<TRIPOS>BOND
     1    1    2 1    
     2    1   72 1    
     3    1   73 1    
     4    1   74 1    
     5    2    3 2    
     6    2    4 am   BACKBONE|DICT|INTERRES
     7    4    5 1    
     8    4   75 1    
     9    5    6 1    
    10    5   35 1    
    11    5   76 1    
    12    6    7 1    
    13    6   77 1    
    14    6   78 1    
    15    7    8 1    
    16    8    9 1    
    17    8   79 1    
    18    8   80 1    
    19    9   10 ar   
    20    9   14 ar   
    21   10   11 ar   
    22   10   81 1    
    23   11   12 ar   
    24   11   71 1    
    25   12   13 ar   
    26   12   82 1    
    27   13   14 ar   
    28   13   15 1    
    29   14   83 1    
    30   15   16 1    
    31   15   84 1    
    32   15   85 1    
    33   16   17 1    
    34   17   18 1    
    35   17   86 1    
    36   17   87 1    
    37   18   19 1    
    38   18   37 1    
    39   18   88 1    
    40   19   20 am   BACKBONE|DICT|INTERRES
    41   19   89 1    
    42   20   21 2    
    43   20   22 1    
    44   22   23 1    
    45   22   24 1    
    46   22   90 1    
    47   23   91 1    
    48   23   92 1    
    49   23   93 1    
    50   24   25 am   BACKBONE|DICT|INTERRES
    51   24   94 1    
    52   25   26 2    
    53   25   27 1    
    54   27   28 1    
    55   27   29 1    
    56   27   95 1    
    57   28   96 1    
    58   28   97 1    
    59   28   98 1    
    60   29   30 am   BACKBONE|DICT|INTERRES
    61   29   99 1    
    62   30   31 2    
    63   30   32 1    
    64   32   33 1    
    65   32   34 1    
    66   32  100 1    
    67   33  101 1    
    68   33  102 1    
    69   33  103 1    
    70   34   35 am   BACKBONE|DICT|INTERRES
    71   34  104 1    
    72   35   36 2    
    73   37   38 2    
    74   37   39 am   BACKBONE|DICT|INTERRES
    75   39   40 1    
    76   39  105 1    
    77   40   41 1    
    78   40   42 1    
    79   40  106 1    
    80   41  107 1    
    81   41  108 1    
    82   41  109 1    
    83   42   43 2    
    84   42   44 am   BACKBONE|DICT|INTERRES
    85   44   45 1    
    86   44  110 1    
    87   45   46 1    
    88   45   47 1    
    89   45  111 1    
    90   46  112 1    
    91   46  113 1    
    92   46  114 1    
    93   47   48 2    
    94   47   49 am   BACKBONE|DICT|INTERRES
    95   49   50 1    
    96   49  115 1    
    97   50   51 1    
    98   50   52 1    
    99   50  116 1    
   100   51  117 1    
   101   51  118 1    
   102   51  119 1    
   103   52   53 2    
   104   52   54 am   BACKBONE|DICT|INTERRES
   105   54   55 1    
   106   54  120 1    
   107   55   56 1    
   108   55   57 1    
   109   55  121 1    
   110   56  122 1    
   111   56  123 1    
   112   56  124 1    
   113   57   58 2    
   114   57   59 am   BACKBONE|DICT|INTERRES
   115   59   60 1    
   116   59  125 1    
   117   60   61 1    
   118   60   62 1    
   119   60  126 1    
   120   61  127 1    
   121   61  128 1    
   122   61  129 1    
   123   62   63 2    
   124   62   64 am   BACKBONE|DICT|INTERRES
   125   64   65 1    
   126   64  130 1    
   127   65   66 1    
   128   65   69 1    
   129   65  131 1    
   130   66   67 am   BACKBONE|DICT|INTERRES
   131   66   68 2    
   132   67  132 1    
   133   67  133 1    
   134   69   70 1    
   135   69  134 1    
   136   69  135 1    
   137   70   71 1    
   138   71  136 1    
   139   71  137 1    
@<TRIPOS>SUBSTRUCTURE
     1 UNK         1 GROUP             0       ****    0 ROOT    
