@<TRIPOS>MOLECULE
3R136
137   139    1
SMALL
USER_CHARGES


@<TRIPOS>ATOM
      1 CA         29.1257   22.6258    4.0515 C.3       0 UNK        -0.1979 
      2 C          28.5584   22.3386    2.6690 C.2       0 UNK         0.4864 
      3 O          27.5440   21.6492    2.5508 O.2       0 UNK        -0.5359 
      4 N          29.2077   22.8612    1.6214 N.am      1 UNK        -0.4318 
      5 CA         28.7615   22.7907    0.2294 C.3       1 UNK         0.0824 
      6 C6         29.9212   23.0847   -0.7549 C.3       12 UNK        -0.0944 
      7 S7         31.0198   21.6547   -1.0471 S.3       12 UNK        -0.2672 
      8 C8         31.9077   21.4158    0.5342 C.3       12 UNK         0.0333 
      9 C9         32.5521   22.6733    1.1137 C.ar      12 UNK        -0.0807 
     10 C10        32.5249   22.8810    2.4982 C.ar      12 UNK        -0.0894 
     11 C11        33.1067   24.0218    3.0577 C.ar      12 UNK        -0.0804 
     12 C12        33.7347   24.9495    2.2253 C.ar      12 UNK        -0.0824 
     13 C13        33.7437   24.7725    0.8409 C.ar      12 UNK        -0.0762 
     14 C14        33.1769   23.6197    0.2917 C.ar      12 UNK        -0.0782 
     15 C15        34.3343   25.8477   -0.0581 C.3       12 UNK         0.0230 
     16 S16        33.0380   26.8747   -0.8299 S.3       12 UNK        -0.2608 
     17 C17        32.1897   27.6235    0.6079 C.3       12 UNK        -0.0989 
     18 CA         30.6774   27.2763    0.6410 C.3       5 UNK         0.0716 
     19 N          30.0887   27.3343    1.9846 N.am      5 UNK        -0.4135 
     20 C          29.9533   28.3972    2.7916 C.2       4 UNK         0.5031 
     21 O          30.4232   29.5144    2.5607 O.2       4 UNK        -0.5229 
     22 CA         29.0942   28.1784    4.0582 C.3       4 UNK         0.0329 
     23 CB         29.0490   29.4173    4.9684 C.3       4 UNK        -0.2001 
     24 N          27.7133   27.7985    3.7413 N.am      4 UNK        -0.4303 
     25 C          27.3218   26.6014    3.2898 C.2       3 UNK         0.5044 
     26 O          28.1071   25.6702    3.0973 O.2       3 UNK        -0.5152 
     27 CA         25.8346   26.4152    2.9480 C.3       3 UNK         0.0319 
     28 CB         25.0505   27.7312    2.7467 C.3       3 UNK        -0.2001 
     29 N          25.7888   25.6013    1.7420 N.am      3 UNK        -0.4354 
     30 C          24.7767   24.8664    1.2806 C.2       2 UNK         0.4964 
     31 O          23.6570   24.8395    1.7921 O.2       2 UNK        -0.5047 
     32 CA         25.0698   23.9881    0.0479 C.3       2 UNK         0.0288 
     33 CB         24.9021   24.7864   -1.2600 C.3       2 UNK        -0.2113 
     34 N          26.3654   23.2871    0.0931 N.am      2 UNK        -0.4145 
     35 C          27.6080   23.7936    0.0506 C.2       1 UNK         0.5006 
     36 O          27.8656   24.9970   -0.0575 O.2       1 UNK        -0.5103 
     37 C          29.8372   28.1244   -0.3326 C.2       5 UNK         0.5055 
     38 O          30.2545   29.2152   -0.7204 O.2       5 UNK        -0.5220 
     39 N          28.6216   27.6460   -0.6410 N.am      6 UNK        -0.4450 
     40 CA         27.6007   28.3226   -1.4570 C.3       6 UNK         0.0367 
     41 CB         28.0228   28.3448   -2.9407 C.3       6 UNK        -0.1929 
     42 C          27.2155   29.7203   -0.9222 C.2       6 UNK         0.5070 
     43 O          26.9218   30.6245   -1.7053 O.2       6 UNK        -0.5237 
     44 N          27.2381   29.8574    0.4122 N.am      7 UNK        -0.4739 
     45 CA         26.9848   31.0718    1.1958 C.3       7 UNK         0.0276 
     46 CB         25.5359   31.5700    1.0042 C.3       7 UNK        -0.1927 
     47 C          28.0393   32.1808    0.9920 C.2       7 UNK         0.5013 
     48 O          27.7160   33.3602    1.1411 O.2       7 UNK        -0.5193 
     49 N          29.2946   31.7946    0.7141 N.am      8 UNK        -0.4253 
     50 CA         30.4532   32.6971    0.6616 C.3       8 UNK         0.0242 
     51 CB         31.5898   32.0170   -0.1188 C.3       8 UNK        -0.2000 
     52 C          30.9570   33.1443    2.0500 C.2       8 UNK         0.4948 
     53 O          31.8417   33.9990    2.1113 O.2       8 UNK        -0.5275 
     54 N          30.4024   32.5592    3.1228 N.am      9 UNK        -0.4246 
     55 CA         30.7440   32.7546    4.5372 C.3       9 UNK         0.0261 
     56 CB         30.5932   34.2293    4.9718 C.3       9 UNK        -0.1959 
     57 C          32.1094   32.1407    4.8988 C.2       9 UNK         0.5033 
     58 O          32.8521   32.7144    5.6988 O.2       9 UNK        -0.5390 
     59 N          32.4044   30.9739    4.3101 N.am      10 UNK        -0.4215 
     60 CA         33.5724   30.1488    4.6184 C.3       10 UNK         0.0240 
     61 CB         34.0320   29.4626    3.3190 C.3       10 UNK        -0.1982 
     62 C          33.2487   29.1377    5.7404 C.2       10 UNK         0.4970 
     63 O          32.3205   29.3542    6.5219 O.2       10 UNK        -0.4916 
     64 N          34.0267   28.0489    5.7981 N.am      11 UNK        -0.4279 
     65 CA         33.8851   26.9143    6.7322 C.3       11 UNK         0.1003 
     66 C          34.2527   27.2336    8.2137 C.2       11 UNK         0.5709 
     67 N          34.9003   28.3544    8.5093 N.am      11 UNK        -0.7358 
     68 O          33.9809   26.4373    9.1096 O.2       11 UNK        -0.4999 
     69 C69        32.5274   26.1528    6.6089 C.3       12 UNK        -0.0954 
     70 S70        32.0400   25.7608    4.8959 S.3       12 UNK        -0.2268 
     71 C71        33.0457   24.2836    4.5542 C.3       12 UNK         0.0203 
     72 H72        29.5610   21.7228    4.4781 H         1 UNK         0.0888 
     73 H73        29.8928   23.3998    4.0216 H         1 UNK         0.0888 
     74 H74        28.3335   22.9728    4.7142 H         1 UNK         0.0888 
     75 H75        30.0229   23.4339    1.7844 H         1 UNK         0.3017 
     76 H76        28.3819   21.7871    0.0247 H         1 UNK         0.0873 
     77 H77        30.5055   23.9474   -0.4336 H         1 UNK         0.0745 
     78 H78        29.5247   23.3549   -1.7359 H         1 UNK         0.0745 
     79 H79        32.6895   20.6715    0.3785 H         1 UNK         0.0705 
     80 H80        31.2133   20.9757    1.2512 H         1 UNK         0.0705 
     81 H81        32.0470   22.1552    3.1420 H         1 UNK         0.1334 
     82 H82        34.1776   25.8358    2.6588 H         1 UNK         0.1417 
     83 H83        33.1959   23.4779   -0.7803 H         1 UNK         0.1562 
     84 H84        34.9307   25.3803   -0.8429 H         1 UNK         0.0748 
     85 H85        35.0158   26.4906    0.5014 H         1 UNK         0.0748 
     86 H86        32.3645   28.7006    0.6181 H         1 UNK         0.0940 
     87 H87        32.6543   27.2509    1.5153 H         1 UNK         0.0940 
     88 H88        30.5689   26.2357    0.3318 H         1 UNK         0.0703 
     89 H89        29.6036   26.4922    2.2855 H         1 UNK         0.3081 
     90 H90        29.5547   27.3682    4.6266 H         1 UNK         0.0719 
     91 H91        28.4896   29.2164    5.8822 H         1 UNK         0.0809 
     92 H92        28.5852   30.2699    4.4723 H         1 UNK         0.0809 
     93 H93        30.0514   29.7123    5.2725 H         1 UNK         0.0809 
     94 H94        27.0093   28.5094    3.8743 H         1 UNK         0.2990 
     95 H95        25.3846   25.8520    3.7677 H         1 UNK         0.0690 
     96 H96        24.0081   27.5322    2.4975 H         1 UNK         0.0788 
     97 H97        25.4665   28.3324    1.9393 H         1 UNK         0.0788 
     98 H98        25.0409   28.3380    3.6527 H         1 UNK         0.0788 
     99 H99        26.6836   25.4951    1.2685 H         1 UNK         0.2993 
    100 H100       24.3123   23.2023    0.0473 H         1 UNK         0.0949 
    101 H101       25.6259   25.5962   -1.3425 H         1 UNK         0.0767 
    102 H102       25.0192   24.1439   -2.1327 H         1 UNK         0.0767 
    103 H103       23.9089   25.2337   -1.3175 H         1 UNK         0.0767 
    104 H104       26.2912   22.2947    0.2752 H         1 UNK         0.3013 
    105 H105       28.3692   26.7125   -0.3155 H         1 UNK         0.3121 
    106 H106       26.6977   27.7166   -1.3806 H         1 UNK         0.0774 
    107 H107       27.2202   28.7286   -3.5715 H         1 UNK         0.0815 
    108 H108       28.8953   28.9789   -3.1021 H         1 UNK         0.0815 
    109 H109       28.2638   27.3439   -3.2986 H         1 UNK         0.0815 
    110 H110       27.5221   29.0464    0.9411 H         1 UNK         0.2987 
    111 H111       27.0819   30.7746    2.2409 H         1 UNK         0.0949 
    112 H112       25.3726   31.9681    0.0025 H         1 UNK         0.0806 
    113 H113       24.8140   30.7704    1.1697 H         1 UNK         0.0806 
    114 H114       25.2996   32.3672    1.7101 H         1 UNK         0.0806 
    115 H115       29.4916   30.8101    0.5661 H         1 UNK         0.3010 
    116 H116       30.1619   33.5988    0.1189 H         1 UNK         0.0829 
    117 H117       31.2708   31.7384   -1.1233 H         1 UNK         0.0813 
    118 H118       32.4483   32.6813   -0.2254 H         1 UNK         0.0813 
    119 H119       31.9360   31.1147    0.3867 H         1 UNK         0.0813 
    120 H120       29.7423   31.8186    2.9311 H         1 UNK         0.3038 
    121 H121       30.0065   32.1872    5.1048 H         1 UNK         0.0769 
    122 H122       31.3609   34.8662    4.5319 H         1 UNK         0.0811 
    123 H123       29.6200   34.6297    4.6884 H         1 UNK         0.0811 
    124 H124       30.6799   34.3248    6.0547 H         1 UNK         0.0811 
    125 H125       31.7216   30.5630    3.6798 H         1 UNK         0.3204 
    126 H126       34.3852   30.7857    4.9731 H         1 UNK         0.0748 
    127 H127       35.0126   28.9989    3.4297 H         1 UNK         0.0771 
    128 H128       33.3276   28.6881    3.0243 H         1 UNK         0.0771 
    129 H129       34.1094   30.1746    2.4966 H         1 UNK         0.0771 
    130 H130       34.7809   27.9651    5.1331 H         1 UNK         0.2980 
    131 H131       34.6609   26.2145    6.4220 H         1 UNK         0.0545 
    132 H132       35.1381   29.0141    7.7867 H         1 UNK         0.3459 
    133 H133       35.1437   28.5448    9.4686 H         1 UNK         0.3459 
    134 H134       32.5579   25.2200    7.1746 H         1 UNK         0.0616 
    135 H135       31.7237   26.7446    7.0499 H         1 UNK         0.0616 
    136 H136       32.6264   23.4306    5.0898 H         1 UNK         0.0634 
    137 H137       34.0591   24.4269    4.9302 H         1 UNK         0.0634 
@<TRIPOS>BOND
     1    1    2 1    
     2    1   72 1    
     3    1   73 1    
     4    1   74 1    
     5    2    3 2    
     6    2    4 am   BACKBONE|DICT|INTERRES
     7    4    5 1    
     8    4   75 1    
     9    5    6 1    
    10    5   35 1    
    11    5   76 1    
    12    6    7 1    
    13    6   77 1    
    14    6   78 1    
    15    7    8 1    
    16    8    9 1    
    17    8   79 1    
    18    8   80 1    
    19    9   10 ar   
    20    9   14 ar   
    21   10   11 ar   
    22   10   81 1    
    23   11   12 ar   
    24   11   71 1    
    25   12   13 ar   
    26   12   82 1    
    27   13   14 ar   
    28   13   15 1    
    29   14   83 1    
    30   15   16 1    
    31   15   84 1    
    32   15   85 1    
    33   16   17 1    
    34   17   18 1    
    35   17   86 1    
    36   17   87 1    
    37   18   19 1    
    38   18   37 1    
    39   18   88 1    
    40   19   20 am   BACKBONE|DICT|INTERRES
    41   19   89 1    
    42   20   21 2    
    43   20   22 1    
    44   22   23 1    
    45   22   24 1    
    46   22   90 1    
    47   23   91 1    
    48   23   92 1    
    49   23   93 1    
    50   24   25 am   BACKBONE|DICT|INTERRES
    51   24   94 1    
    52   25   26 2    
    53   25   27 1    
    54   27   28 1    
    55   27   29 1    
    56   27   95 1    
    57   28   96 1    
    58   28   97 1    
    59   28   98 1    
    60   29   30 am   BACKBONE|DICT|INTERRES
    61   29   99 1    
    62   30   31 2    
    63   30   32 1    
    64   32   33 1    
    65   32   34 1    
    66   32  100 1    
    67   33  101 1    
    68   33  102 1    
    69   33  103 1    
    70   34   35 am   BACKBONE|DICT|INTERRES
    71   34  104 1    
    72   35   36 2    
    73   37   38 2    
    74   37   39 am   BACKBONE|DICT|INTERRES
    75   39   40 1    
    76   39  105 1    
    77   40   41 1    
    78   40   42 1    
    79   40  106 1    
    80   41  107 1    
    81   41  108 1    
    82   41  109 1    
    83   42   43 2    
    84   42   44 am   BACKBONE|DICT|INTERRES
    85   44   45 1    
    86   44  110 1    
    87   45   46 1    
    88   45   47 1    
    89   45  111 1    
    90   46  112 1    
    91   46  113 1    
    92   46  114 1    
    93   47   48 2    
    94   47   49 am   BACKBONE|DICT|INTERRES
    95   49   50 1    
    96   49  115 1    
    97   50   51 1    
    98   50   52 1    
    99   50  116 1    
   100   51  117 1    
   101   51  118 1    
   102   51  119 1    
   103   52   53 2    
   104   52   54 am   BACKBONE|DICT|INTERRES
   105   54   55 1    
   106   54  120 1    
   107   55   56 1    
   108   55   57 1    
   109   55  121 1    
   110   56  122 1    
   111   56  123 1    
   112   56  124 1    
   113   57   58 2    
   114   57   59 am   BACKBONE|DICT|INTERRES
   115   59   60 1    
   116   59  125 1    
   117   60   61 1    
   118   60   62 1    
   119   60  126 1    
   120   61  127 1    
   121   61  128 1    
   122   61  129 1    
   123   62   63 2    
   124   62   64 am   BACKBONE|DICT|INTERRES
   125   64   65 1    
   126   64  130 1    
   127   65   66 1    
   128   65   69 1    
   129   65  131 1    
   130   66   67 am   BACKBONE|DICT|INTERRES
   131   66   68 2    
   132   67  132 1    
   133   67  133 1    
   134   69   70 1    
   135   69  134 1    
   136   69  135 1    
   137   70   71 1    
   138   71  136 1    
   139   71  137 1    
@<TRIPOS>SUBSTRUCTURE
     1 UNK         1 GROUP             0       ****    0 ROOT    
