@<TRIPOS>MOLECULE
3R136
137   139    1
SMALL
USER_CHARGES


@<TRIPOS>ATOM
      1 CA         28.4605   27.0183   -3.3042 C.3       0 UNK        -0.1979 
      2 C          28.6297   25.5921   -2.7991 C.2       0 UNK         0.4864 
      3 O          28.6855   24.6661   -3.6096 O.2       0 UNK        -0.5359 
      4 N          28.7092   25.4331   -1.4707 N.am      1 UNK        -0.4318 
      5 CA         28.7971   24.1805   -0.7052 C.3       1 UNK         0.0824 
      6 C6         29.9298   23.2134   -1.1615 C.3       12 UNK        -0.0944 
      7 S7         31.5757   24.0015   -1.2500 S.3       12 UNK        -0.2672 
      8 C8         32.3718   23.4016    0.2721 C.3       12 UNK         0.0333 
      9 C9         31.8543   24.1382    1.4973 C.ar      12 UNK        -0.0807 
     10 C10        32.3651   25.3982    1.8184 C.ar      12 UNK        -0.0894 
     11 C11        31.9084   26.0972    2.9394 C.ar      12 UNK        -0.0804 
     12 C12        30.9240   25.5082    3.7460 C.ar      12 UNK        -0.0824 
     13 C13        30.4035   24.2471    3.4359 C.ar      12 UNK        -0.0762 
     14 C14        30.8769   23.5638    2.3131 C.ar      12 UNK        -0.0782 
     15 C15        29.3379   23.6130    4.3186 C.3       12 UNK         0.0230 
     16 S16        27.6572   23.9879    3.7249 S.3       12 UNK        -0.2608 
     17 C17        27.4845   25.7415    4.1923 C.3       12 UNK        -0.0989 
     18 CA         27.6339   26.6718    2.9622 C.3       5 UNK         0.0716 
     19 N          26.4600   26.6064    2.0793 N.am      5 UNK        -0.4135 
     20 C          26.4411   26.9716    0.7915 C.2       4 UNK         0.5031 
     21 O          27.4511   27.3395    0.1838 O.2       4 UNK        -0.5229 
     22 CA         25.0820   26.9269    0.0788 C.3       4 UNK         0.0329 
     23 CB         25.1697   27.3935   -1.3864 C.3       4 UNK        -0.2001 
     24 N          24.5445   25.5685    0.1038 N.am      4 UNK        -0.4303 
     25 C          23.4366   25.1810    0.7501 C.2       3 UNK         0.5044 
     26 O          22.7664   25.9279    1.4638 O.2       3 UNK        -0.5152 
     27 CA         22.9829   23.7199    0.5669 C.3       3 UNK         0.0319 
     28 CB         21.8812   23.6329   -0.5017 C.3       3 UNK        -0.2001 
     29 N          24.0798   22.8248    0.1945 N.am      3 UNK        -0.4354 
     30 C          25.0043   22.3670    1.0479 C.2       2 UNK         0.4964 
     31 O          24.9658   22.5633    2.2615 O.2       2 UNK        -0.5047 
     32 CA         26.1750   21.5637    0.4511 C.3       2 UNK         0.0288 
     33 CB         25.7884   20.7493   -0.8049 C.3       2 UNK        -0.2113 
     34 N          27.3508   22.4059    0.1896 N.am      2 UNK        -0.4145 
     35 C          27.4243   23.4732   -0.6226 C.2       1 UNK         0.5006 
     36 O          26.4593   23.9049   -1.2609 O.2       1 UNK        -0.5103 
     37 C          27.9673   28.1313    3.3522 C.2       5 UNK         0.5055 
     38 O          27.9267   28.4930    4.5292 O.2       5 UNK        -0.5220 
     39 N          28.2840   28.9404    2.3383 N.am      6 UNK        -0.4450 
     40 CA         28.7213   30.3311    2.4249 C.3       6 UNK         0.0367 
     41 CB         27.4981   31.2667    2.4841 C.3       6 UNK        -0.1929 
     42 C          29.6641   30.6468    1.2503 C.2       6 UNK         0.5070 
     43 O          29.6845   31.7750    0.7582 O.2       6 UNK        -0.5237 
     44 N          30.4226   29.6336    0.8047 N.am      7 UNK        -0.4739 
     45 CA         31.3725   29.7128   -0.3111 C.3       7 UNK         0.0276 
     46 CB         31.6168   28.2926   -0.8512 C.3       7 UNK        -0.1927 
     47 C          32.7034   30.4022    0.0549 C.2       7 UNK         0.5013 
     48 O          33.5260   30.6308   -0.8328 O.2       7 UNK        -0.5193 
     49 N          32.8950   30.7152    1.3403 N.am      8 UNK        -0.4253 
     50 CA         34.0236   31.4481    1.9000 C.3       8 UNK         0.0242 
     51 CB         34.9977   30.4500    2.5513 C.3       8 UNK        -0.2000 
     52 C          33.4766   32.4344    2.9392 C.2       8 UNK         0.4948 
     53 O          32.3506   32.2568    3.4130 O.2       8 UNK        -0.5275 
     54 N          34.2913   33.4371    3.2990 N.am      9 UNK        -0.4246 
     55 CA         33.9744   34.4431    4.3234 C.3       9 UNK         0.0261 
     56 CB         35.0593   35.5324    4.3273 C.3       9 UNK        -0.1959 
     57 C          33.8013   33.8458    5.7331 C.2       9 UNK         0.5033 
     58 O          32.9933   34.3515    6.5136 O.2       9 UNK        -0.5390 
     59 N          34.5380   32.7665    6.0122 N.am      10 UNK        -0.4215 
     60 CA         34.3672   31.8852    7.1574 C.3       10 UNK         0.0240 
     61 CB         35.2640   32.3380    8.3229 C.3       10 UNK        -0.1982 
     62 C          34.7341   30.4821    6.6694 C.2       10 UNK         0.4970 
     63 O          35.8069   30.3167    6.0838 O.2       10 UNK        -0.4916 
     64 N          33.8395   29.5147    6.8894 N.am      11 UNK        -0.4279 
     65 CA         34.0111   28.1163    6.4600 C.3       11 UNK         0.1003 
     66 C          34.7639   27.2253    7.4909 C.2       11 UNK         0.5709 
     67 N          35.1086   27.7183    8.6751 N.am      11 UNK        -0.7358 
     68 O          35.0559   26.0665    7.2053 O.2       11 UNK        -0.4999 
     69 C69        32.6625   27.4798    6.0316 C.3       12 UNK        -0.0954 
     70 S70        31.8647   28.3827    4.6584 S.3       12 UNK        -0.2268 
     71 C71        32.5209   27.4726    3.2189 C.3       12 UNK         0.0203 
     72 H72        29.3284   27.3125   -3.8936 H         1 UNK         0.0888 
     73 H73        27.5763   27.0904   -3.9369 H         1 UNK         0.0888 
     74 H74        28.3485   27.7302   -2.4860 H         1 UNK         0.0888 
     75 H75        28.5340   26.2502   -0.8914 H         1 UNK         0.3017 
     76 H76        29.0241   24.4973    0.3137 H         1 UNK         0.0873 
     77 H77        29.7065   22.7977   -2.1451 H         1 UNK         0.0745 
     78 H78        29.9964   22.3523   -0.4957 H         1 UNK         0.0745 
     79 H79        33.4486   23.5549    0.1860 H         1 UNK         0.0705 
     80 H80        32.2284   22.3245    0.3710 H         1 UNK         0.0705 
     81 H81        33.1259   25.8369    1.1869 H         1 UNK         0.1334 
     82 H82        30.5537   26.0212    4.6208 H         1 UNK         0.1417 
     83 H83        30.4836   22.5852    2.0756 H         1 UNK         0.1562 
     84 H84        29.4492   23.9399    5.3536 H         1 UNK         0.0748 
     85 H85        29.4689   22.5299    4.3320 H         1 UNK         0.0748 
     86 H86        28.2254   25.9685    4.9603 H         1 UNK         0.0940 
     87 H87        26.5151   25.8879    4.6717 H         1 UNK         0.0940 
     88 H88        28.4968   26.3201    2.3920 H         1 UNK         0.0703 
     89 H89        25.5944   26.3124    2.5086 H         1 UNK         0.3081 
     90 H90        24.4237   27.6176    0.6094 H         1 UNK         0.0719 
     91 H91        25.7933   26.7270   -1.9827 H         1 UNK         0.0809 
     92 H92        25.5943   28.3958   -1.4579 H         1 UNK         0.0809 
     93 H93        24.1831   27.4266   -1.8486 H         1 UNK         0.0809 
     94 H94        25.0739   24.8773   -0.4239 H         1 UNK         0.2990 
     95 H95        22.5622   23.3828    1.5168 H         1 UNK         0.0690 
     96 H96        21.5032   22.6150   -0.6001 H         1 UNK         0.0788 
     97 H97        22.2403   23.9549   -1.4801 H         1 UNK         0.0788 
     98 H98        21.0334   24.2680   -0.2406 H         1 UNK         0.0788 
     99 H99        24.2098   22.6413   -0.7906 H         1 UNK         0.2993 
    100 H100       26.4722   20.8493    1.2209 H         1 UNK         0.0949 
    101 H101       24.9122   20.1279   -0.6144 H         1 UNK         0.0767 
    102 H102       25.5638   21.3812   -1.6645 H         1 UNK         0.0767 
    103 H103       26.5974   20.0794   -1.0966 H         1 UNK         0.0767 
    104 H104       28.1724   22.1561    0.7206 H         1 UNK         0.3013 
    105 H105       28.2101   28.5541    1.3981 H         1 UNK         0.3121 
    106 H106       29.3075   30.4633    3.3372 H         1 UNK         0.0774 
    107 H107       27.8052   32.3080    2.5884 H         1 UNK         0.0815 
    108 H108       26.8927   31.1911    1.5802 H         1 UNK         0.0815 
    109 H109       26.8602   31.0332    3.3365 H         1 UNK         0.0815 
    110 H110       30.3587   28.7444    1.2785 H         1 UNK         0.2987 
    111 H111       30.9175   30.3047   -1.1086 H         1 UNK         0.0949 
    112 H112       30.6852   27.8149   -1.1542 H         1 UNK         0.0806 
    113 H113       32.2662   28.3133   -1.7274 H         1 UNK         0.0806 
    114 H114       32.0946   27.6528   -0.1101 H         1 UNK         0.0806 
    115 H115       32.1286   30.5847    1.9879 H         1 UNK         0.3010 
    116 H116       34.5342   32.0127    1.1167 H         1 UNK         0.0829 
    117 H117       35.3562   29.7178    1.8276 H         1 UNK         0.0813 
    118 H118       35.8732   30.9577    2.9576 H         1 UNK         0.0813 
    119 H119       34.5279   29.9053    3.3717 H         1 UNK         0.0813 
    120 H120       35.1956   33.5136    2.8545 H         1 UNK         0.3038 
    121 H121       33.0249   34.9073    4.0481 H         1 UNK         0.0769 
    122 H122       36.0414   35.1259    4.5722 H         1 UNK         0.0811 
    123 H123       34.8335   36.3038    5.0651 H         1 UNK         0.0811 
    124 H124       35.1308   36.0261    3.3580 H         1 UNK         0.0811 
    125 H125       35.1705   32.4126    5.3063 H         1 UNK         0.3204 
    126 H126       33.3227   31.8960    7.4772 H         1 UNK         0.0748 
    127 H127       35.1519   31.6756    9.1819 H         1 UNK         0.0771 
    128 H128       36.3187   32.3395    8.0443 H         1 UNK         0.0771 
    129 H129       35.0046   33.3443    8.6524 H         1 UNK         0.0771 
    130 H130       32.9782   29.7279    7.3706 H         1 UNK         0.2980 
    131 H131       34.6485   28.1108    5.5737 H         1 UNK         0.0545 
    132 H132       34.8828   28.6683    8.9205 H         1 UNK         0.3459 
    133 H133       35.6016   27.1307    9.3289 H         1 UNK         0.3459 
    134 H134       31.9683   27.4582    6.8732 H         1 UNK         0.0616 
    135 H135       32.8054   26.4403    5.7312 H         1 UNK         0.0616 
    136 H136       33.6002   27.3656    3.3365 H         1 UNK         0.0634 
    137 H137       32.3733   28.0978    2.3396 H         1 UNK         0.0634 
@<TRIPOS>BOND
     1    1    2 1    
     2    1   72 1    
     3    1   73 1    
     4    1   74 1    
     5    2    3 2    
     6    2    4 am   BACKBONE|DICT|INTERRES
     7    4    5 1    
     8    4   75 1    
     9    5    6 1    
    10    5   35 1    
    11    5   76 1    
    12    6    7 1    
    13    6   77 1    
    14    6   78 1    
    15    7    8 1    
    16    8    9 1    
    17    8   79 1    
    18    8   80 1    
    19    9   10 ar   
    20    9   14 ar   
    21   10   11 ar   
    22   10   81 1    
    23   11   12 ar   
    24   11   71 1    
    25   12   13 ar   
    26   12   82 1    
    27   13   14 ar   
    28   13   15 1    
    29   14   83 1    
    30   15   16 1    
    31   15   84 1    
    32   15   85 1    
    33   16   17 1    
    34   17   18 1    
    35   17   86 1    
    36   17   87 1    
    37   18   19 1    
    38   18   37 1    
    39   18   88 1    
    40   19   20 am   BACKBONE|DICT|INTERRES
    41   19   89 1    
    42   20   21 2    
    43   20   22 1    
    44   22   23 1    
    45   22   24 1    
    46   22   90 1    
    47   23   91 1    
    48   23   92 1    
    49   23   93 1    
    50   24   25 am   BACKBONE|DICT|INTERRES
    51   24   94 1    
    52   25   26 2    
    53   25   27 1    
    54   27   28 1    
    55   27   29 1    
    56   27   95 1    
    57   28   96 1    
    58   28   97 1    
    59   28   98 1    
    60   29   30 am   BACKBONE|DICT|INTERRES
    61   29   99 1    
    62   30   31 2    
    63   30   32 1    
    64   32   33 1    
    65   32   34 1    
    66   32  100 1    
    67   33  101 1    
    68   33  102 1    
    69   33  103 1    
    70   34   35 am   BACKBONE|DICT|INTERRES
    71   34  104 1    
    72   35   36 2    
    73   37   38 2    
    74   37   39 am   BACKBONE|DICT|INTERRES
    75   39   40 1    
    76   39  105 1    
    77   40   41 1    
    78   40   42 1    
    79   40  106 1    
    80   41  107 1    
    81   41  108 1    
    82   41  109 1    
    83   42   43 2    
    84   42   44 am   BACKBONE|DICT|INTERRES
    85   44   45 1    
    86   44  110 1    
    87   45   46 1    
    88   45   47 1    
    89   45  111 1    
    90   46  112 1    
    91   46  113 1    
    92   46  114 1    
    93   47   48 2    
    94   47   49 am   BACKBONE|DICT|INTERRES
    95   49   50 1    
    96   49  115 1    
    97   50   51 1    
    98   50   52 1    
    99   50  116 1    
   100   51  117 1    
   101   51  118 1    
   102   51  119 1    
   103   52   53 2    
   104   52   54 am   BACKBONE|DICT|INTERRES
   105   54   55 1    
   106   54  120 1    
   107   55   56 1    
   108   55   57 1    
   109   55  121 1    
   110   56  122 1    
   111   56  123 1    
   112   56  124 1    
   113   57   58 2    
   114   57   59 am   BACKBONE|DICT|INTERRES
   115   59   60 1    
   116   59  125 1    
   117   60   61 1    
   118   60   62 1    
   119   60  126 1    
   120   61  127 1    
   121   61  128 1    
   122   61  129 1    
   123   62   63 2    
   124   62   64 am   BACKBONE|DICT|INTERRES
   125   64   65 1    
   126   64  130 1    
   127   65   66 1    
   128   65   69 1    
   129   65  131 1    
   130   66   67 am   BACKBONE|DICT|INTERRES
   131   66   68 2    
   132   67  132 1    
   133   67  133 1    
   134   69   70 1    
   135   69  134 1    
   136   69  135 1    
   137   70   71 1    
   138   71  136 1    
   139   71  137 1    
@<TRIPOS>SUBSTRUCTURE
     1 UNK         1 GROUP             0       ****    0 ROOT    
