@<TRIPOS>MOLECULE
3R136
137   139    1
SMALL
USER_CHARGES


@<TRIPOS>ATOM
      1 CA         31.7073   24.1714   -4.2109 C.3       0 UNK        -0.1979 
      2 C          31.0941   25.5293   -4.5459 C.2       0 UNK         0.4864 
      3 O          31.2928   26.0113   -5.6598 O.2       0 UNK        -0.5359 
      4 N          30.3583   26.1983   -3.6437 N.am      1 UNK        -0.4318 
      5 CA         29.9613   25.7982   -2.2867 C.3       1 UNK         0.0824 
      6 C6         31.1593   25.6036   -1.3166 C.3       12 UNK        -0.0944 
      7 S7         30.7059   25.8955    0.4274 S.3       12 UNK        -0.2672 
      8 C8         31.2443   24.3274    1.1757 C.3       12 UNK         0.0333 
      9 C9         30.9629   24.3068    2.6688 C.ar      12 UNK        -0.0807 
     10 C10        31.8937   24.8320    3.5698 C.ar      12 UNK        -0.0894 
     11 C11        31.6288   24.8397    4.9422 C.ar      12 UNK        -0.0804 
     12 C12        30.4274   24.3012    5.4133 C.ar      12 UNK        -0.0824 
     13 C13        29.4965   23.7565    4.5223 C.ar      12 UNK        -0.0762 
     14 C14        29.7710   23.7605    3.1511 C.ar      12 UNK        -0.0782 
     15 C15        28.1888   23.1718    5.0368 C.3       12 UNK         0.0230 
     16 S16        26.7446   24.1159    4.4548 S.3       12 UNK        -0.2608 
     17 C17        27.0401   25.7519    5.2105 C.3       12 UNK        -0.0989 
     18 CA         27.6990   26.7562    4.2308 C.3       5 UNK         0.0716 
     19 N          26.9286   26.9079    2.9976 N.am      5 UNK        -0.4135 
     20 C          27.2372   27.6645    1.9367 C.2       4 UNK         0.5031 
     21 O          28.2118   28.4226    1.8803 O.2       4 UNK        -0.5229 
     22 CA         26.2972   27.5039    0.7254 C.3       4 UNK         0.0329 
     23 CB         26.7298   28.3355   -0.4939 C.3       4 UNK        -0.2001 
     24 N          26.1984   26.0973    0.3239 N.am      4 UNK        -0.4303 
     25 C          25.3839   25.1825    0.8677 C.2       3 UNK         0.5044 
     26 O          24.5862   25.4497    1.7678 O.2       3 UNK        -0.5152 
     27 CA         25.5209   23.7261    0.3745 C.3       3 UNK         0.0319 
     28 CB         24.1738   22.9728    0.3737 C.3       3 UNK        -0.2001 
     29 N          26.2113   23.5906   -0.9169 N.am      3 UNK        -0.4354 
     30 C          25.7995   24.0195   -2.1193 C.2       2 UNK         0.4964 
     31 O          24.7281   24.5931   -2.3196 O.2       2 UNK        -0.5047 
     32 CA         26.7972   23.8236   -3.2775 C.3       2 UNK         0.0288 
     33 CB         26.1415   24.0008   -4.6601 C.3       2 UNK        -0.2113 
     34 N          27.9183   24.7602   -3.1617 N.am      2 UNK        -0.4145 
     35 C          28.9349   24.6438   -2.2951 C.2       1 UNK         0.5006 
     36 O          29.0667   23.6779   -1.5409 O.2       1 UNK        -0.5103 
     37 C          27.9250   28.1127    4.9157 C.2       5 UNK         0.5055 
     38 O          26.9520   28.7930    5.2481 O.2       5 UNK        -0.5220 
     39 N          29.2031   28.4773    5.0823 N.am      6 UNK        -0.4450 
     40 CA         29.7059   29.7326    5.6529 C.3       6 UNK         0.0367 
     41 CB         29.2889   29.8704    7.1333 C.3       6 UNK        -0.1929 
     42 C          29.3865   30.9999    4.8324 C.2       6 UNK         0.5070 
     43 O          29.6567   32.1017    5.3124 O.2       6 UNK        -0.5237 
     44 N          28.8478   30.8408    3.6159 N.am      7 UNK        -0.4739 
     45 CA         28.5562   31.9305    2.6844 C.3       7 UNK         0.0276 
     46 CB         27.1091   31.8036    2.1803 C.3       7 UNK        -0.1927 
     47 C          29.5469   31.9200    1.5141 C.2       7 UNK         0.5013 
     48 O          30.0446   32.9822    1.1398 O.2       7 UNK        -0.5193 
     49 N          29.8287   30.7281    0.9699 N.am      8 UNK        -0.4253 
     50 CA         30.7404   30.5248   -0.1604 C.3       8 UNK         0.0242 
     51 CB         30.0682   29.5709   -1.1599 C.3       8 UNK        -0.2000 
     52 C          32.1155   29.9785    0.2651 C.2       8 UNK         0.4948 
     53 O          32.9093   29.6294   -0.6107 O.2       8 UNK        -0.5275 
     54 N          32.3826   29.8930    1.5741 N.am      9 UNK        -0.4246 
     55 CA         33.6030   29.3211    2.1363 C.3       9 UNK         0.0261 
     56 CB         33.3340   27.8617    2.5336 C.3       9 UNK        -0.1959 
     57 C          34.0760   30.1372    3.3418 C.2       9 UNK         0.5033 
     58 O          33.2772   30.8334    3.9745 O.2       9 UNK        -0.5390 
     59 N          35.3709   29.9922    3.6559 N.am      10 UNK        -0.4215 
     60 CA         36.0891   30.6839    4.7332 C.3       10 UNK         0.0240 
     61 CB         37.5927   30.3884    4.5970 C.3       10 UNK        -0.1982 
     62 C          35.6045   30.3618    6.1599 C.2       10 UNK         0.4970 
     63 O          35.9764   31.0816    7.0878 O.2       10 UNK        -0.4916 
     64 N          34.7845   29.3144    6.3174 N.am      11 UNK        -0.4279 
     65 CA         34.0638   28.9939    7.5577 C.3       11 UNK         0.1003 
     66 C          32.9796   30.0359    7.9722 C.2       11 UNK         0.5709 
     67 N          32.6051   30.9842    7.1193 N.am      11 UNK        -0.7358 
     68 O          32.4872   29.9928    9.0969 O.2       11 UNK        -0.4999 
     69 C69        33.5177   27.5403    7.5436 C.3       12 UNK        -0.0954 
     70 S70        32.3443   27.1947    6.1872 S.3       12 UNK        -0.2268 
     71 C71        32.6410   25.4226    5.9168 C.3       12 UNK         0.0203 
     72 H72        31.0069   23.5077   -3.7086 H         1 UNK         0.0888 
     73 H73        32.0264   23.6681   -5.1234 H         1 UNK         0.0888 
     74 H74        32.5874   24.2984   -3.5818 H         1 UNK         0.0888 
     75 H75        30.0021   27.1000   -3.9292 H         1 UNK         0.3017 
     76 H76        29.3989   26.6564   -1.9205 H         1 UNK         0.0873 
     77 H77        31.6069   24.6154   -1.4291 H         1 UNK         0.0745 
     78 H78        31.9488   26.3185   -1.5545 H         1 UNK         0.0745 
     79 H79        32.3115   24.1881    0.9959 H         1 UNK         0.0705 
     80 H80        30.7352   23.4967    0.6843 H         1 UNK         0.0705 
     81 H81        32.8232   25.2406    3.2007 H         1 UNK         0.1334 
     82 H82        30.2193   24.3077    6.4747 H         1 UNK         0.1417 
     83 H83        29.0469   23.3527    2.4586 H         1 UNK         0.1562 
     84 H84        28.1768   23.1324    6.1272 H         1 UNK         0.0748 
     85 H85        28.0990   22.1408    4.6920 H         1 UNK         0.0748 
     86 H86        27.6534   25.6286    6.1053 H         1 UNK         0.0940 
     87 H87        26.0780   26.1345    5.5578 H         1 UNK         0.0940 
     88 H88        28.6711   26.3588    3.9341 H         1 UNK         0.0703 
     89 H89        26.0984   26.3306    2.9292 H         1 UNK         0.3081 
     90 H90        25.3132   27.8620    1.0356 H         1 UNK         0.0719 
     91 H91        27.6742   27.9814   -0.9012 H         1 UNK         0.0809 
     92 H92        25.9856   28.2836   -1.2888 H         1 UNK         0.0809 
     93 H93        26.8528   29.3877   -0.2366 H         1 UNK         0.0809 
     94 H94        26.8513   25.7820   -0.3764 H         1 UNK         0.2990 
     95 H95        26.1654   23.2337    1.1046 H         1 UNK         0.0690 
     96 H96        24.2948   21.9428    0.0386 H         1 UNK         0.0788 
     97 H97        23.4394   23.4536   -0.2730 H         1 UNK         0.0788 
     98 H98        23.7459   22.9366    1.3764 H         1 UNK         0.0788 
     99 H99        27.1481   23.2008   -0.8713 H         1 UNK         0.2993 
    100 H100       27.1783   22.8012   -3.2193 H         1 UNK         0.0949 
    101 H101       25.7612   25.0131   -4.8038 H         1 UNK         0.0767 
    102 H102       26.8487   23.7915   -5.4631 H         1 UNK         0.0767 
    103 H103       25.3013   23.3160   -4.7833 H         1 UNK         0.0767 
    104 H104       27.8792   25.5777   -3.7536 H         1 UNK         0.3013 
    105 H105       29.9213   27.8407    4.7628 H         1 UNK         0.3121 
    106 H106       30.7914   29.6468    5.6220 H         1 UNK         0.0774 
    107 H107       29.7560   30.7397    7.5963 H         1 UNK         0.0815 
    108 H108       28.2113   29.9900    7.2452 H         1 UNK         0.0815 
    109 H109       29.5953   28.9987    7.7114 H         1 UNK         0.0815 
    110 H110       28.6479   29.9013    3.2906 H         1 UNK         0.2987 
    111 H111       28.6498   32.8976    3.1836 H         1 UNK         0.0949 
    112 H112       26.8696   32.6013    1.4759 H         1 UNK         0.0806 
    113 H113       26.9341   30.8557    1.6727 H         1 UNK         0.0806 
    114 H114       26.3989   31.8744    3.0043 H         1 UNK         0.0806 
    115 H115       29.3584   29.8983    1.3238 H         1 UNK         0.3010 
    116 H116       30.9229   31.4710   -0.6740 H         1 UNK         0.0829 
    117 H117       29.1102   29.9632   -1.5003 H         1 UNK         0.0813 
    118 H118       30.6873   29.4183   -2.0450 H         1 UNK         0.0813 
    119 H119       29.8993   28.5958   -0.7055 H         1 UNK         0.0813 
    120 H120       31.7329   30.2822    2.2438 H         1 UNK         0.3038 
    121 H121       34.4032   29.3454    1.3932 H         1 UNK         0.0769 
    122 H122       34.1967   27.4110    3.0254 H         1 UNK         0.0811 
    123 H123       33.1110   27.2553    1.6559 H         1 UNK         0.0811 
    124 H124       32.4860   27.7834    3.2146 H         1 UNK         0.0811 
    125 H125       35.9311   29.3774    3.0821 H         1 UNK         0.3204 
    126 H126       35.9381   31.7554    4.5868 H         1 UNK         0.0748 
    127 H127       38.1679   30.9202    5.3565 H         1 UNK         0.0771 
    128 H128       37.8070   29.3250    4.7123 H         1 UNK         0.0771 
    129 H129       37.9748   30.7064    3.6267 H         1 UNK         0.0771 
    130 H130       34.5138   28.7841    5.5040 H         1 UNK         0.2980 
    131 H131       34.8054   29.0327    8.3578 H         1 UNK         0.0545 
    132 H132       32.9764   31.0081    6.1786 H         1 UNK         0.3459 
    133 H133       31.9166   31.6615    7.4037 H         1 UNK         0.3459 
    134 H134       33.0302   27.3022    8.4906 H         1 UNK         0.0616 
    135 H135       34.3568   26.8477    7.4629 H         1 UNK         0.0616 
    136 H136       32.5860   24.8968    6.8713 H         1 UNK         0.0634 
    137 H137       33.6550   25.2790    5.5402 H         1 UNK         0.0634 
@<TRIPOS>BOND
     1    1    2 1    
     2    1   72 1    
     3    1   73 1    
     4    1   74 1    
     5    2    3 2    
     6    2    4 am   BACKBONE|DICT|INTERRES
     7    4    5 1    
     8    4   75 1    
     9    5    6 1    
    10    5   35 1    
    11    5   76 1    
    12    6    7 1    
    13    6   77 1    
    14    6   78 1    
    15    7    8 1    
    16    8    9 1    
    17    8   79 1    
    18    8   80 1    
    19    9   10 ar   
    20    9   14 ar   
    21   10   11 ar   
    22   10   81 1    
    23   11   12 ar   
    24   11   71 1    
    25   12   13 ar   
    26   12   82 1    
    27   13   14 ar   
    28   13   15 1    
    29   14   83 1    
    30   15   16 1    
    31   15   84 1    
    32   15   85 1    
    33   16   17 1    
    34   17   18 1    
    35   17   86 1    
    36   17   87 1    
    37   18   19 1    
    38   18   37 1    
    39   18   88 1    
    40   19   20 am   BACKBONE|DICT|INTERRES
    41   19   89 1    
    42   20   21 2    
    43   20   22 1    
    44   22   23 1    
    45   22   24 1    
    46   22   90 1    
    47   23   91 1    
    48   23   92 1    
    49   23   93 1    
    50   24   25 am   BACKBONE|DICT|INTERRES
    51   24   94 1    
    52   25   26 2    
    53   25   27 1    
    54   27   28 1    
    55   27   29 1    
    56   27   95 1    
    57   28   96 1    
    58   28   97 1    
    59   28   98 1    
    60   29   30 am   BACKBONE|DICT|INTERRES
    61   29   99 1    
    62   30   31 2    
    63   30   32 1    
    64   32   33 1    
    65   32   34 1    
    66   32  100 1    
    67   33  101 1    
    68   33  102 1    
    69   33  103 1    
    70   34   35 am   BACKBONE|DICT|INTERRES
    71   34  104 1    
    72   35   36 2    
    73   37   38 2    
    74   37   39 am   BACKBONE|DICT|INTERRES
    75   39   40 1    
    76   39  105 1    
    77   40   41 1    
    78   40   42 1    
    79   40  106 1    
    80   41  107 1    
    81   41  108 1    
    82   41  109 1    
    83   42   43 2    
    84   42   44 am   BACKBONE|DICT|INTERRES
    85   44   45 1    
    86   44  110 1    
    87   45   46 1    
    88   45   47 1    
    89   45  111 1    
    90   46  112 1    
    91   46  113 1    
    92   46  114 1    
    93   47   48 2    
    94   47   49 am   BACKBONE|DICT|INTERRES
    95   49   50 1    
    96   49  115 1    
    97   50   51 1    
    98   50   52 1    
    99   50  116 1    
   100   51  117 1    
   101   51  118 1    
   102   51  119 1    
   103   52   53 2    
   104   52   54 am   BACKBONE|DICT|INTERRES
   105   54   55 1    
   106   54  120 1    
   107   55   56 1    
   108   55   57 1    
   109   55  121 1    
   110   56  122 1    
   111   56  123 1    
   112   56  124 1    
   113   57   58 2    
   114   57   59 am   BACKBONE|DICT|INTERRES
   115   59   60 1    
   116   59  125 1    
   117   60   61 1    
   118   60   62 1    
   119   60  126 1    
   120   61  127 1    
   121   61  128 1    
   122   61  129 1    
   123   62   63 2    
   124   62   64 am   BACKBONE|DICT|INTERRES
   125   64   65 1    
   126   64  130 1    
   127   65   66 1    
   128   65   69 1    
   129   65  131 1    
   130   66   67 am   BACKBONE|DICT|INTERRES
   131   66   68 2    
   132   67  132 1    
   133   67  133 1    
   134   69   70 1    
   135   69  134 1    
   136   69  135 1    
   137   70   71 1    
   138   71  136 1    
   139   71  137 1    
@<TRIPOS>SUBSTRUCTURE
     1 UNK         1 GROUP             0       ****    0 ROOT    
