@<TRIPOS>MOLECULE
3R136
137   139    1
SMALL
USER_CHARGES


@<TRIPOS>ATOM
      1 CA         29.4566   27.7164   -0.9776 C.3       0 UNK        -0.1979 
      2 C          29.3437   26.2020   -1.0189 C.2       0 UNK         0.4864 
      3 O          29.1181   25.6367   -2.0897 O.2       0 UNK        -0.5359 
      4 N          29.4939   25.5539    0.1450 N.am      1 UNK        -0.4318 
      5 CA         29.4524   24.1034    0.3765 C.3       1 UNK         0.0824 
      6 C6         30.7341   23.3610   -0.0902 C.3       12 UNK        -0.0944 
      7 S7         32.2633   24.0342    0.6441 S.3       12 UNK        -0.2672 
      8 C8         32.3543   23.1621    2.2423 C.3       12 UNK         0.0333 
      9 C9         31.5425   23.8690    3.3196 C.ar      12 UNK        -0.0807 
     10 C10        31.9802   25.0986    3.8227 C.ar      12 UNK        -0.0894 
     11 C11        31.2534   25.7571    4.8177 C.ar      12 UNK        -0.0804 
     12 C12        30.0802   25.1806    5.3075 C.ar      12 UNK        -0.0824 
     13 C13        29.6234   23.9589    4.8060 C.ar      12 UNK        -0.0762 
     14 C14        30.3668   23.2986    3.8219 C.ar      12 UNK        -0.0782 
     15 C15        28.3344   23.3508    5.3421 C.3       12 UNK         0.0230 
     16 S16        26.9114   23.6448    4.2400 S.3       12 UNK        -0.2608 
     17 C17        26.7243   25.4632    4.2915 C.3       12 UNK        -0.0989 
     18 CA         26.8882   26.0904    2.8783 C.3       5 UNK         0.0716 
     19 N          25.8364   25.6610    1.9458 N.am      5 UNK        -0.4135 
     20 C          24.5352   25.9822    2.0006 C.2       4 UNK         0.5031 
     21 O          24.0429   26.6711    2.8966 O.2       4 UNK        -0.5229 
     22 CA         23.6334   25.4744    0.8538 C.3       4 UNK         0.0329 
     23 CB         22.3586   26.3301    0.6972 C.3       4 UNK        -0.2001 
     24 N          24.2929   25.3412   -0.4539 N.am      4 UNK        -0.4303 
     25 C          25.0131   26.2570   -1.1194 C.2       3 UNK         0.5044 
     26 O          25.3530   27.3425   -0.6455 O.2       3 UNK        -0.5152 
     27 CA         25.4505   25.8619   -2.5444 C.3       3 UNK         0.0319 
     28 CB         26.1349   27.0150   -3.3010 C.3       3 UNK        -0.2001 
     29 N          26.3475   24.7058   -2.5075 N.am      3 UNK        -0.4354 
     30 C          25.9477   23.4322   -2.3696 C.2       2 UNK         0.4964 
     31 O          24.7650   23.0879   -2.3870 O.2       2 UNK        -0.5047 
     32 CA         27.0316   22.3723   -2.0958 C.3       2 UNK         0.0288 
     33 CB         27.5039   21.7308   -3.4101 C.3       2 UNK        -0.2113 
     34 N          28.1913   22.8933   -1.3654 N.am      2 UNK        -0.4145 
     35 C          28.1478   23.4782   -0.1581 C.2       1 UNK         0.5006 
     36 O          27.1189   23.5835    0.5108 O.2       1 UNK        -0.5103 
     37 C          27.0960   27.6273    2.9123 C.2       5 UNK         0.5055 
     38 O          27.6943   28.1357    3.8629 O.2       5 UNK        -0.5220 
     39 N          26.6402   28.3535    1.8780 N.am      6 UNK        -0.4450 
     40 CA         26.6995   29.8155    1.7840 C.3       6 UNK         0.0367 
     41 CB         25.5325   30.3073    0.9075 C.3       6 UNK        -0.1929 
     42 C          28.0689   30.2987    1.2710 C.2       6 UNK         0.5070 
     43 O          28.1517   30.9244    0.2125 O.2       6 UNK        -0.5237 
     44 N          29.1298   29.9695    2.0158 N.am      7 UNK        -0.4739 
     45 CA         30.5078   30.3675    1.7256 C.3       7 UNK         0.0276 
     46 CB         31.4610   29.4861    2.5466 C.3       7 UNK        -0.1927 
     47 C          30.7531   31.8563    2.0256 C.2       7 UNK         0.5013 
     48 O          30.1566   32.4065    2.9543 O.2       7 UNK        -0.5193 
     49 N          31.6626   32.4651    1.2541 N.am      8 UNK        -0.4253 
     50 CA         32.0887   33.8625    1.3977 C.3       8 UNK         0.0242 
     51 CB         32.4864   34.3985    0.0108 C.3       8 UNK        -0.2000 
     52 C          33.2429   34.0508    2.4038 C.2       8 UNK         0.4948 
     53 O          33.6658   35.1867    2.6248 O.2       8 UNK        -0.5275 
     54 N          33.7443   32.9536    2.9799 N.am      9 UNK        -0.4246 
     55 CA         34.8191   32.9032    3.9658 C.3       9 UNK         0.0261 
     56 CB         36.1560   32.6468    3.2463 C.3       9 UNK        -0.1959 
     57 C          34.5002   31.7866    4.9672 C.2       9 UNK         0.5033 
     58 O          33.5882   30.9902    4.7233 O.2       9 UNK        -0.5390 
     59 N          35.2673   31.7264    6.0637 N.am      10 UNK        -0.4215 
     60 CA         35.1160   30.7823    7.1798 C.3       10 UNK         0.0240 
     61 CB         35.8744   31.3361    8.4016 C.3       10 UNK        -0.1982 
     62 C          35.5166   29.3272    6.8428 C.2       10 UNK         0.4970 
     63 O          36.2986   28.7164    7.5736 O.2       10 UNK        -0.4916 
     64 N          34.9570   28.8017    5.7483 N.am      11 UNK        -0.4279 
     65 CA         35.0401   27.4091    5.2764 C.3       11 UNK         0.1003 
     66 C          36.4565   26.9354    4.8303 C.2       11 UNK         0.5709 
     67 N          37.4092   27.8300    4.5959 N.am      11 UNK        -0.7358 
     68 O          36.6893   25.7413    4.6566 O.2       11 UNK        -0.4999 
     69 C69        34.3389   26.3966    6.2342 C.3       12 UNK        -0.0954 
     70 S70        32.7072   26.9301    6.8695 S.3       12 UNK        -0.2268 
     71 C71        31.7135   27.1017    5.3550 C.3       12 UNK         0.0203 
     72 H72        29.9827   28.0493   -0.0848 H         1 UNK         0.0888 
     73 H73        30.0046   28.0801   -1.8463 H         1 UNK         0.0888 
     74 H74        28.4654   28.1692   -0.9829 H         1 UNK         0.0888 
     75 H75        29.7020   26.0968    0.9699 H         1 UNK         0.3017 
     76 H76        29.3872   23.9890    1.4562 H         1 UNK         0.0873 
     77 H77        30.8478   23.4335   -1.1731 H         1 UNK         0.0745 
     78 H78        30.6716   22.2960    0.1413 H         1 UNK         0.0745 
     79 H79        33.3980   23.1242    2.5577 H         1 UNK         0.0705 
     80 H80        32.0371   22.1252    2.1226 H         1 UNK         0.0705 
     81 H81        32.8872   25.5422    3.4352 H         1 UNK         0.1334 
     82 H82        29.5208   25.6910    6.0796 H         1 UNK         0.1417 
     83 H83        30.0201   22.3480    3.4394 H         1 UNK         0.1562 
     84 H84        28.1068   23.7422    6.3350 H         1 UNK         0.0748 
     85 H85        28.4652   22.2747    5.4657 H         1 UNK         0.0748 
     86 H86        27.4465   25.8751    4.9948 H         1 UNK         0.0940 
     87 H87        25.7467   25.7032    4.7115 H         1 UNK         0.0940 
     88 H88        27.8197   25.7038    2.4659 H         1 UNK         0.0703 
     89 H89        26.1454   25.0185    1.2199 H         1 UNK         0.3081 
     90 H90        23.3254   24.4682    1.1417 H         1 UNK         0.0719 
     91 H91        21.7122   25.9408   -0.0893 H         1 UNK         0.0809 
     92 H92        22.5997   27.3653    0.4517 H         1 UNK         0.0809 
     93 H93        21.7724   26.3401    1.6170 H         1 UNK         0.0809 
     94 H94        24.1444   24.4569   -0.9292 H         1 UNK         0.2990 
     95 H95        24.5480   25.5984   -3.1001 H         1 UNK         0.0690 
     96 H96        26.3912   26.7229   -4.3194 H         1 UNK         0.0788 
     97 H97        27.0499   27.3401   -2.8073 H         1 UNK         0.0788 
     98 H98        25.4762   27.8819   -3.3679 H         1 UNK         0.0788 
     99 H99        27.3415   24.9131   -2.4431 H         1 UNK         0.2993 
    100 H100       26.5761   21.5967   -1.4764 H         1 UNK         0.0949 
    101 H101       27.9948   22.4569   -4.0598 H         1 UNK         0.0767 
    102 H102       28.2043   20.9160   -3.2255 H         1 UNK         0.0767 
    103 H103       26.6624   21.3129   -3.9648 H         1 UNK         0.0767 
    104 H104       29.0670   22.9095   -1.8679 H         1 UNK         0.3013 
    105 H105       26.1885   27.8784    1.1008 H         1 UNK         0.3121 
    106 H106       26.5601   30.2408    2.7803 H         1 UNK         0.0774 
    107 H107       25.5013   31.3970    0.8755 H         1 UNK         0.0815 
    108 H108       25.6219   29.9542   -0.1205 H         1 UNK         0.0815 
    109 H109       24.5729   29.9656    1.2958 H         1 UNK         0.0815 
    110 H110       28.9603   29.4649    2.8795 H         1 UNK         0.2987 
    111 H111       30.6977   30.1943    0.6642 H         1 UNK         0.0949 
    112 H112       31.3009   28.4269    2.3438 H         1 UNK         0.0806 
    113 H113       32.5035   29.7057    2.3129 H         1 UNK         0.0806 
    114 H114       31.3277   29.6495    3.6169 H         1 UNK         0.0806 
    115 H115       32.1140   31.9355    0.5213 H         1 UNK         0.3010 
    116 H116       31.2475   34.4572    1.7609 H         1 UNK         0.0829 
    117 H117       31.6628   34.3142   -0.6986 H         1 UNK         0.0813 
    118 H118       32.7587   35.4537    0.0609 H         1 UNK         0.0813 
    119 H119       33.3419   33.8612   -0.4005 H         1 UNK         0.0813 
    120 H120       33.2777   32.0678    2.8354 H         1 UNK         0.3038 
    121 H121       34.8669   33.8466    4.5139 H         1 UNK         0.0769 
    122 H122       36.1521   31.6928    2.7173 H         1 UNK         0.0811 
    123 H123       36.3679   33.4299    2.5180 H         1 UNK         0.0811 
    124 H124       36.9900   32.6287    3.9486 H         1 UNK         0.0811 
    125 H125       36.0146   32.3997    6.1570 H         1 UNK         0.3204 
    126 H126       34.0564   30.7503    7.4430 H         1 UNK         0.0748 
    127 H127       35.7281   30.7004    9.2762 H         1 UNK         0.0771 
    128 H128       36.9477   31.3960    8.2171 H         1 UNK         0.0771 
    129 H129       35.5226   32.3325    8.6701 H         1 UNK         0.0771 
    130 H130       34.3430   29.4157    5.2172 H         1 UNK         0.2980 
    131 H131       34.4791   27.4053    4.3431 H         1 UNK         0.0545 
    132 H132       38.3187   27.5161    4.2966 H         1 UNK         0.3459 
    133 H133       37.2317   28.8112    4.7353 H         1 UNK         0.3459 
    134 H134       34.2110   25.4316    5.7414 H         1 UNK         0.0616 
    135 H135       34.9742   26.2078    7.1011 H         1 UNK         0.0616 
    136 H136       32.2712   27.6490    4.5977 H         1 UNK         0.0634 
    137 H137       30.8424   27.7184    5.5823 H         1 UNK         0.0634 
@<TRIPOS>BOND
     1    1    2 1    
     2    1   72 1    
     3    1   73 1    
     4    1   74 1    
     5    2    3 2    
     6    2    4 am   BACKBONE|DICT|INTERRES
     7    4    5 1    
     8    4   75 1    
     9    5    6 1    
    10    5   35 1    
    11    5   76 1    
    12    6    7 1    
    13    6   77 1    
    14    6   78 1    
    15    7    8 1    
    16    8    9 1    
    17    8   79 1    
    18    8   80 1    
    19    9   10 ar   
    20    9   14 ar   
    21   10   11 ar   
    22   10   81 1    
    23   11   12 ar   
    24   11   71 1    
    25   12   13 ar   
    26   12   82 1    
    27   13   14 ar   
    28   13   15 1    
    29   14   83 1    
    30   15   16 1    
    31   15   84 1    
    32   15   85 1    
    33   16   17 1    
    34   17   18 1    
    35   17   86 1    
    36   17   87 1    
    37   18   19 1    
    38   18   37 1    
    39   18   88 1    
    40   19   20 am   BACKBONE|DICT|INTERRES
    41   19   89 1    
    42   20   21 2    
    43   20   22 1    
    44   22   23 1    
    45   22   24 1    
    46   22   90 1    
    47   23   91 1    
    48   23   92 1    
    49   23   93 1    
    50   24   25 am   BACKBONE|DICT|INTERRES
    51   24   94 1    
    52   25   26 2    
    53   25   27 1    
    54   27   28 1    
    55   27   29 1    
    56   27   95 1    
    57   28   96 1    
    58   28   97 1    
    59   28   98 1    
    60   29   30 am   BACKBONE|DICT|INTERRES
    61   29   99 1    
    62   30   31 2    
    63   30   32 1    
    64   32   33 1    
    65   32   34 1    
    66   32  100 1    
    67   33  101 1    
    68   33  102 1    
    69   33  103 1    
    70   34   35 am   BACKBONE|DICT|INTERRES
    71   34  104 1    
    72   35   36 2    
    73   37   38 2    
    74   37   39 am   BACKBONE|DICT|INTERRES
    75   39   40 1    
    76   39  105 1    
    77   40   41 1    
    78   40   42 1    
    79   40  106 1    
    80   41  107 1    
    81   41  108 1    
    82   41  109 1    
    83   42   43 2    
    84   42   44 am   BACKBONE|DICT|INTERRES
    85   44   45 1    
    86   44  110 1    
    87   45   46 1    
    88   45   47 1    
    89   45  111 1    
    90   46  112 1    
    91   46  113 1    
    92   46  114 1    
    93   47   48 2    
    94   47   49 am   BACKBONE|DICT|INTERRES
    95   49   50 1    
    96   49  115 1    
    97   50   51 1    
    98   50   52 1    
    99   50  116 1    
   100   51  117 1    
   101   51  118 1    
   102   51  119 1    
   103   52   53 2    
   104   52   54 am   BACKBONE|DICT|INTERRES
   105   54   55 1    
   106   54  120 1    
   107   55   56 1    
   108   55   57 1    
   109   55  121 1    
   110   56  122 1    
   111   56  123 1    
   112   56  124 1    
   113   57   58 2    
   114   57   59 am   BACKBONE|DICT|INTERRES
   115   59   60 1    
   116   59  125 1    
   117   60   61 1    
   118   60   62 1    
   119   60  126 1    
   120   61  127 1    
   121   61  128 1    
   122   61  129 1    
   123   62   63 2    
   124   62   64 am   BACKBONE|DICT|INTERRES
   125   64   65 1    
   126   64  130 1    
   127   65   66 1    
   128   65   69 1    
   129   65  131 1    
   130   66   67 am   BACKBONE|DICT|INTERRES
   131   66   68 2    
   132   67  132 1    
   133   67  133 1    
   134   69   70 1    
   135   69  134 1    
   136   69  135 1    
   137   70   71 1    
   138   71  136 1    
   139   71  137 1    
@<TRIPOS>SUBSTRUCTURE
     1 UNK         1 GROUP             0       ****    0 ROOT    
