@<TRIPOS>MOLECULE
3R136
137   139    1
SMALL
USER_CHARGES


@<TRIPOS>ATOM
      1 CA         25.7595   22.5324    1.1249 C.3       0 UNK        -0.1979 
      2 C          26.8390   21.8754    0.2779 C.2       0 UNK         0.4864 
      3 O          26.6187   20.7846   -0.2515 O.2       0 UNK        -0.5359 
      4 N          27.9986   22.5322    0.1501 N.am      1 UNK        -0.4318 
      5 CA         29.1124   22.1282   -0.7125 C.3       1 UNK         0.0824 
      6 C6         30.4806   22.3964   -0.0262 C.3       12 UNK        -0.0944 
      7 S7         30.8088   24.1555    0.3610 S.3       12 UNK        -0.2672 
      8 C8         31.9795   23.9899    1.7483 C.3       12 UNK         0.0333 
      9 C9         31.3313   24.2752    3.0972 C.ar      12 UNK        -0.0807 
     10 C10        31.8263   25.3040    3.9039 C.ar      12 UNK        -0.0894 
     11 C11        31.2505   25.5741    5.1493 C.ar      12 UNK        -0.0804 
     12 C12        30.1761   24.7998    5.5949 C.ar      12 UNK        -0.0824 
     13 C13        29.6595   23.7801    4.7895 C.ar      12 UNK        -0.0762 
     14 C14        30.2497   23.5128    3.5503 C.ar      12 UNK        -0.0782 
     15 C15        28.4473   22.9803    5.2402 C.3       12 UNK         0.0230 
     16 S16        26.9326   23.5518    4.4050 S.3       12 UNK        -0.2608 
     17 C17        26.5831   25.1240    5.2655 C.3       12 UNK        -0.0989 
     18 CA         27.1852   26.3667    4.5599 C.3       5 UNK         0.0716 
     19 N          26.7874   26.4697    3.1504 N.am      5 UNK        -0.4135 
     20 C          27.4849   27.1503    2.2335 C.2       4 UNK         0.5031 
     21 O          28.5054   27.7958    2.4824 O.2       4 UNK        -0.5229 
     22 CA         26.9360   27.1401    0.8049 C.3       4 UNK         0.0329 
     23 CB         25.8940   28.2573    0.6094 C.3       4 UNK        -0.2001 
     24 N          28.0604   27.3308   -0.1047 N.am      4 UNK        -0.4303 
     25 C          28.0995   26.9681   -1.3908 C.2       3 UNK         0.5044 
     26 O          27.1360   26.4819   -1.9848 O.2       3 UNK        -0.5152 
     27 CA         29.4277   27.1631   -2.1477 C.3       3 UNK         0.0319 
     28 CB         30.5420   27.8308   -1.3158 C.3       3 UNK        -0.2001 
     29 N          29.8980   25.8557   -2.5967 N.am      3 UNK        -0.4354 
     30 C          29.7210   25.3375   -3.8202 C.2       2 UNK         0.4964 
     31 O          29.2566   25.9618   -4.7751 O.2       2 UNK        -0.5047 
     32 CA         30.1302   23.8632   -4.0147 C.3       2 UNK         0.0288 
     33 CB         31.5423   23.7699   -4.6160 C.3       2 UNK        -0.2113 
     34 N          30.0847   23.0882   -2.7697 N.am      2 UNK        -0.4145 
     35 C          28.9584   22.7650   -2.1158 C.2       1 UNK         0.5006 
     36 O          27.8342   22.9677   -2.5816 O.2       1 UNK        -0.5103 
     37 C          26.8794   27.6447    5.3691 C.2       5 UNK         0.5055 
     38 O          27.4245   27.8083    6.4620 O.2       5 UNK        -0.5220 
     39 N          26.0185   28.5267    4.8408 N.am      6 UNK        -0.4450 
     40 CA         25.5666   29.7735    5.4647 C.3       6 UNK         0.0367 
     41 CB         24.2241   30.1824    4.8287 C.3       6 UNK        -0.1929 
     42 C          26.6215   30.8988    5.3997 C.2       6 UNK         0.5070 
     43 O          26.3202   31.9938    4.9223 O.2       6 UNK        -0.5237 
     44 N          27.8343   30.6053    5.8896 N.am      7 UNK        -0.4739 
     45 CA         28.9963   31.4953    6.0106 C.3       7 UNK         0.0276 
     46 CB         28.7514   32.5462    7.1144 C.3       7 UNK        -0.1927 
     47 C          29.4359   32.1225    4.6718 C.2       7 UNK         0.5013 
     48 O          29.6797   33.3301    4.6042 O.2       7 UNK        -0.5193 
     49 N          29.5262   31.2881    3.6272 N.am      8 UNK        -0.4253 
     50 CA         30.0596   31.6616    2.3146 C.3       8 UNK         0.0242 
     51 CB         29.6496   30.5896    1.2915 C.3       8 UNK        -0.2000 
     52 C          31.5909   31.8194    2.3500 C.2       8 UNK         0.4948 
     53 O          32.2280   31.4632    3.3431 O.2       8 UNK        -0.5275 
     54 N          32.1704   32.2986    1.2392 N.am      9 UNK        -0.4246 
     55 CA         33.6166   32.5021    1.0580 C.3       9 UNK         0.0261 
     56 CB         33.8805   33.0647   -0.3479 C.3       9 UNK        -0.1959 
     57 C          34.4782   31.2471    1.3047 C.2       9 UNK         0.5033 
     58 O          35.6124   31.3745    1.7685 O.2       9 UNK        -0.5390 
     59 N          33.9083   30.0609    1.0459 N.am      10 UNK        -0.4215 
     60 CA         34.4939   28.7533    1.3548 C.3       10 UNK         0.0240 
     61 CB         33.6079   27.6497    0.7543 C.3       10 UNK        -0.1982 
     62 C          34.7094   28.4989    2.8601 C.2       10 UNK         0.4970 
     63 O          35.5591   27.6763    3.2036 O.2       10 UNK        -0.4916 
     64 N          33.9558   29.1941    3.7230 N.am      11 UNK        -0.4279 
     65 CA         34.0922   29.1417    5.1855 C.3       11 UNK         0.1003 
     66 C          35.1952   30.0889    5.7420 C.2       11 UNK         0.5709 
     67 N          35.8653   30.8974    4.9267 N.am      11 UNK        -0.7358 
     68 O          35.4624   30.0787    6.9414 O.2       11 UNK        -0.4999 
     69 C69        32.7341   29.3593    5.9143 C.3       12 UNK        -0.0954 
     70 S70        31.3770   28.3229    5.2691 S.3       12 UNK        -0.2268 
     71 C71        31.7929   26.7099    6.0008 C.3       12 UNK         0.0203 
     72 H72        25.5626   21.9330    2.0134 H         1 UNK         0.0888 
     73 H73        26.0478   23.5330    1.4455 H         1 UNK         0.0888 
     74 H74        24.8338   22.6149    0.5560 H         1 UNK         0.0888 
     75 H75        28.1143   23.4295    0.5980 H         1 UNK         0.3017 
     76 H76        29.0546   21.0503   -0.8784 H         1 UNK         0.0873 
     77 H77        31.3049   22.0078   -0.6265 H         1 UNK         0.0745 
     78 H78        30.5185   21.8207    0.8993 H         1 UNK         0.0745 
     79 H79        32.4210   22.9927    1.7614 H         1 UNK         0.0705 
     80 H80        32.8063   24.6785    1.5717 H         1 UNK         0.0705 
     81 H81        32.6573   25.9071    3.5633 H         1 UNK         0.1334 
     82 H82        29.7202   25.0131    6.5522 H         1 UNK         0.1417 
     83 H83        29.8488   22.7235    2.9307 H         1 UNK         0.1562 
     84 H84        28.3198   23.0342    6.3225 H         1 UNK         0.0748 
     85 H85        28.6018   21.9262    5.0049 H         1 UNK         0.0748 
     86 H86        26.9491   25.0509    6.2916 H         1 UNK         0.0940 
     87 H87        25.4986   25.2227    5.3444 H         1 UNK         0.0940 
     88 H88        28.2698   26.2684    4.5751 H         1 UNK         0.0703 
     89 H89        25.9613   25.9572    2.8778 H         1 UNK         0.3081 
     90 H90        26.4786   26.1675    0.6103 H         1 UNK         0.0719 
     91 H91        26.3191   29.2428    0.8041 H         1 UNK         0.0809 
     92 H92        25.4999   28.2600   -0.4070 H         1 UNK         0.0809 
     93 H93        25.0451   28.1273    1.2815 H         1 UNK         0.0809 
     94 H94        28.8927   27.6885    0.3482 H         1 UNK         0.2990 
     95 H95        29.2184   27.8054   -3.0055 H         1 UNK         0.0690 
     96 H96        31.4529   27.9390   -1.9050 H         1 UNK         0.0788 
     97 H97        30.7939   27.2531   -0.4258 H         1 UNK         0.0788 
     98 H98        30.2502   28.8323   -1.0011 H         1 UNK         0.0788 
     99 H99        30.2646   25.2497   -1.8756 H         1 UNK         0.2993 
    100 H100       29.4248   23.4183   -4.7202 H         1 UNK         0.0949 
    101 H101       32.2950   24.1914   -3.9484 H         1 UNK         0.0767 
    102 H102       31.8176   22.7357   -4.8245 H         1 UNK         0.0767 
    103 H103       31.6008   24.3154   -5.5590 H         1 UNK         0.0767 
    104 H104       30.9716   22.8852   -2.3312 H         1 UNK         0.3013 
    105 H105       25.6449   28.3270    3.9255 H         1 UNK         0.3121 
    106 H106       25.3815   29.5792    6.5235 H         1 UNK         0.0774 
    107 H107       24.3306   30.4004    3.7652 H         1 UNK         0.0815 
    108 H108       23.8212   31.0768    5.3061 H         1 UNK         0.0815 
    109 H109       23.4758   29.3973    4.9385 H         1 UNK         0.0815 
    110 H110       27.9628   29.6565    6.2337 H         1 UNK         0.2987 
    111 H111       29.8295   30.8697    6.3347 H         1 UNK         0.0949 
    112 H112       28.4891   32.0739    8.0610 H         1 UNK         0.0806 
    113 H113       29.6460   33.1450    7.2901 H         1 UNK         0.0806 
    114 H114       27.9473   33.2328    6.8473 H         1 UNK         0.0806 
    115 H115       29.3346   30.3069    3.7748 H         1 UNK         0.3010 
    116 H116       29.6213   32.6180    2.0214 H         1 UNK         0.0829 
    117 H117       29.9044   30.8931    0.2760 H         1 UNK         0.0813 
    118 H118       30.1483   29.6395    1.4878 H         1 UNK         0.0813 
    119 H119       28.5740   30.4129    1.3106 H         1 UNK         0.0813 
    120 H120       31.5803   32.5671    0.4644 H         1 UNK         0.3038 
    121 H121       33.9284   33.2508    1.7892 H         1 UNK         0.0769 
    122 H122       33.5523   32.3761   -1.1276 H         1 UNK         0.0811 
    123 H123       34.9452   33.2469   -0.5017 H         1 UNK         0.0811 
    124 H124       33.3677   34.0147   -0.4993 H         1 UNK         0.0811 
    125 H125       32.9728   30.0615    0.6683 H         1 UNK         0.3204 
    126 H126       35.4732   28.7091    0.8736 H         1 UNK         0.0748 
    127 H127       34.0556   26.6674    0.9095 H         1 UNK         0.0771 
    128 H128       32.6179   27.6325    1.2125 H         1 UNK         0.0771 
    129 H129       33.4845   27.7777   -0.3210 H         1 UNK         0.0771 
    130 H130       33.2968   29.8890    3.3831 H         1 UNK         0.2980 
    131 H131       34.4332   28.1396    5.4473 H         1 UNK         0.0545 
    132 H132       35.6678   30.9180    3.9348 H         1 UNK         0.3459 
    133 H133       36.5793   31.4970    5.3083 H         1 UNK         0.3459 
    134 H134       32.4215   30.4008    5.8236 H         1 UNK         0.0616 
    135 H135       32.8359   29.1662    6.9837 H         1 UNK         0.0616 
    136 H136       32.8733   26.5958    6.0855 H         1 UNK         0.0634 
    137 H137       31.3964   26.6670    7.0163 H         1 UNK         0.0634 
@<TRIPOS>BOND
     1    1    2 1    
     2    1   72 1    
     3    1   73 1    
     4    1   74 1    
     5    2    3 2    
     6    2    4 am   BACKBONE|DICT|INTERRES
     7    4    5 1    
     8    4   75 1    
     9    5    6 1    
    10    5   35 1    
    11    5   76 1    
    12    6    7 1    
    13    6   77 1    
    14    6   78 1    
    15    7    8 1    
    16    8    9 1    
    17    8   79 1    
    18    8   80 1    
    19    9   10 ar   
    20    9   14 ar   
    21   10   11 ar   
    22   10   81 1    
    23   11   12 ar   
    24   11   71 1    
    25   12   13 ar   
    26   12   82 1    
    27   13   14 ar   
    28   13   15 1    
    29   14   83 1    
    30   15   16 1    
    31   15   84 1    
    32   15   85 1    
    33   16   17 1    
    34   17   18 1    
    35   17   86 1    
    36   17   87 1    
    37   18   19 1    
    38   18   37 1    
    39   18   88 1    
    40   19   20 am   BACKBONE|DICT|INTERRES
    41   19   89 1    
    42   20   21 2    
    43   20   22 1    
    44   22   23 1    
    45   22   24 1    
    46   22   90 1    
    47   23   91 1    
    48   23   92 1    
    49   23   93 1    
    50   24   25 am   BACKBONE|DICT|INTERRES
    51   24   94 1    
    52   25   26 2    
    53   25   27 1    
    54   27   28 1    
    55   27   29 1    
    56   27   95 1    
    57   28   96 1    
    58   28   97 1    
    59   28   98 1    
    60   29   30 am   BACKBONE|DICT|INTERRES
    61   29   99 1    
    62   30   31 2    
    63   30   32 1    
    64   32   33 1    
    65   32   34 1    
    66   32  100 1    
    67   33  101 1    
    68   33  102 1    
    69   33  103 1    
    70   34   35 am   BACKBONE|DICT|INTERRES
    71   34  104 1    
    72   35   36 2    
    73   37   38 2    
    74   37   39 am   BACKBONE|DICT|INTERRES
    75   39   40 1    
    76   39  105 1    
    77   40   41 1    
    78   40   42 1    
    79   40  106 1    
    80   41  107 1    
    81   41  108 1    
    82   41  109 1    
    83   42   43 2    
    84   42   44 am   BACKBONE|DICT|INTERRES
    85   44   45 1    
    86   44  110 1    
    87   45   46 1    
    88   45   47 1    
    89   45  111 1    
    90   46  112 1    
    91   46  113 1    
    92   46  114 1    
    93   47   48 2    
    94   47   49 am   BACKBONE|DICT|INTERRES
    95   49   50 1    
    96   49  115 1    
    97   50   51 1    
    98   50   52 1    
    99   50  116 1    
   100   51  117 1    
   101   51  118 1    
   102   51  119 1    
   103   52   53 2    
   104   52   54 am   BACKBONE|DICT|INTERRES
   105   54   55 1    
   106   54  120 1    
   107   55   56 1    
   108   55   57 1    
   109   55  121 1    
   110   56  122 1    
   111   56  123 1    
   112   56  124 1    
   113   57   58 2    
   114   57   59 am   BACKBONE|DICT|INTERRES
   115   59   60 1    
   116   59  125 1    
   117   60   61 1    
   118   60   62 1    
   119   60  126 1    
   120   61  127 1    
   121   61  128 1    
   122   61  129 1    
   123   62   63 2    
   124   62   64 am   BACKBONE|DICT|INTERRES
   125   64   65 1    
   126   64  130 1    
   127   65   66 1    
   128   65   69 1    
   129   65  131 1    
   130   66   67 am   BACKBONE|DICT|INTERRES
   131   66   68 2    
   132   67  132 1    
   133   67  133 1    
   134   69   70 1    
   135   69  134 1    
   136   69  135 1    
   137   70   71 1    
   138   71  136 1    
   139   71  137 1    
@<TRIPOS>SUBSTRUCTURE
     1 UNK         1 GROUP             0       ****    0 ROOT    
