@<TRIPOS>MOLECULE
3R136
137   139    1
SMALL
USER_CHARGES


@<TRIPOS>ATOM
      1 CA         28.9719   18.0718    1.3807 C.3       0 UNK        -0.1979 
      2 C          28.9274   19.5278    0.9429 C.2       0 UNK         0.4864 
      3 O          28.9202   19.8088   -0.2566 O.2       0 UNK        -0.5359 
      4 N          28.8774   20.4609    1.9021 N.am      1 UNK        -0.4318 
      5 CA         28.8789   21.9177    1.7015 C.3       1 UNK         0.0824 
      6 C6         29.3612   22.6609    2.9761 C.3       12 UNK        -0.0944 
      7 S7         30.9934   22.1200    3.5961 S.3       12 UNK        -0.2672 
      8 C8         32.1598   23.1968    2.6855 C.3       12 UNK         0.0333 
      9 C9         31.9565   24.7053    2.8478 C.ar      12 UNK        -0.0807 
     10 C10        32.4464   25.5543    1.8511 C.ar      12 UNK        -0.0894 
     11 C11        32.2407   26.9352    1.9186 C.ar      12 UNK        -0.0804 
     12 C12        31.5371   27.4728    2.9991 C.ar      12 UNK        -0.0824 
     13 C13        31.0398   26.6397    4.0055 C.ar      12 UNK        -0.0762 
     14 C14        31.2829   25.2648    3.9410 C.ar      12 UNK        -0.0782 
     15 C15        30.2126   27.2028    5.1524 C.3       12 UNK         0.0230 
     16 S16        28.4623   26.7050    5.0054 S.3       12 UNK        -0.2608 
     17 C17        27.6447   28.2559    4.4938 C.3       12 UNK        -0.0989 
     18 CA         28.0784   28.7712    3.0997 C.3       5 UNK         0.0716 
     19 N          27.9537   27.7545    2.0476 N.am      5 UNK        -0.4135 
     20 C          28.5605   27.8068    0.8530 C.2       4 UNK         0.5031 
     21 O          29.2430   28.7604    0.4781 O.2       4 UNK        -0.5229 
     22 CA         28.3150   26.6340   -0.1075 C.3       4 UNK         0.0329 
     23 CB         29.4087   25.5678    0.0409 C.3       4 UNK        -0.2001 
     24 N          26.9976   26.0163    0.0665 N.am      4 UNK        -0.4303 
     25 C          25.8422   26.5905   -0.3012 C.2       3 UNK         0.5044 
     26 O          25.7731   27.7451   -0.7261 O.2       3 UNK        -0.5152 
     27 CA         24.5479   25.7594   -0.1578 C.3       3 UNK         0.0319 
     28 CB         23.5587   26.0201   -1.3135 C.3       3 UNK        -0.2001 
     29 N          24.7667   24.3170    0.0269 N.am      3 UNK        -0.4354 
     30 C          25.3543   23.4549   -0.8182 C.2       2 UNK         0.4964 
     31 O          25.7785   23.7516   -1.9363 O.2       2 UNK        -0.5047 
     32 CA         25.5406   22.0208   -0.2891 C.3       2 UNK         0.0288 
     33 CB         25.2382   20.9740   -1.3760 C.3       2 UNK        -0.2113 
     34 N          26.8862   21.7768    0.2424 N.am      2 UNK        -0.4145 
     35 C          27.5053   22.4547    1.2201 C.2       1 UNK         0.5006 
     36 O          27.0225   23.4572    1.7523 O.2       1 UNK        -0.5103 
     37 C          27.4152   30.1275    2.7599 C.2       5 UNK         0.5055 
     38 O          27.5107   31.0617    3.5568 O.2       5 UNK        -0.5220 
     39 N          26.7805   30.2410    1.5845 N.am      6 UNK        -0.4450 
     40 CA         26.3632   31.5123    0.9954 C.3       6 UNK         0.0367 
     41 CB         25.3763   31.2347   -0.1498 C.3       6 UNK        -0.1929 
     42 C          27.5549   32.3501    0.4883 C.2       6 UNK         0.5070 
     43 O          27.4295   33.5726    0.4121 O.2       6 UNK        -0.5237 
     44 N          28.6760   31.6983    0.1377 N.am      7 UNK        -0.4739 
     45 CA         29.8788   32.3577   -0.3793 C.3       7 UNK         0.0276 
     46 CB         30.7244   31.3416   -1.1640 C.3       7 UNK        -0.1927 
     47 C          30.7220   33.0173    0.7241 C.2       7 UNK         0.5013 
     48 O          31.2435   34.1124    0.5097 O.2       7 UNK        -0.5193 
     49 N          30.8443   32.3451    1.8739 N.am      8 UNK        -0.4253 
     50 CA         31.6165   32.7614    3.0428 C.3       8 UNK         0.0242 
     51 CB         33.1280   32.6264    2.7673 C.3       8 UNK        -0.2000 
     52 C          31.2093   31.8754    4.2240 C.2       8 UNK         0.4948 
     53 O          30.6560   30.7976    4.0053 O.2       8 UNK        -0.5275 
     54 N          31.5200   32.3194    5.4501 N.am      9 UNK        -0.4246 
     55 CA         31.2175   31.6052    6.6994 C.3       9 UNK         0.0261 
     56 CB         31.5776   32.4995    7.8970 C.3       9 UNK        -0.1959 
     57 C          31.9032   30.2304    6.8291 C.2       9 UNK         0.5033 
     58 O          31.3632   29.3497    7.4995 O.2       9 UNK        -0.5390 
     59 N          33.0580   30.0699    6.1759 N.am      10 UNK        -0.4215 
     60 CA         33.8033   28.8289    6.0044 C.3       10 UNK         0.0240 
     61 CB         34.5345   28.4450    7.3048 C.3       10 UNK        -0.1982 
     62 C          34.7970   29.0546    4.8605 C.2       10 UNK         0.4970 
     63 O          35.2382   30.1916    4.6681 O.2       10 UNK        -0.4916 
     64 N          35.1389   27.9791    4.1442 N.am      11 UNK        -0.4279 
     65 CA         36.1047   27.9845    3.0294 C.3       11 UNK         0.1003 
     66 C          37.3169   27.0386    3.2702 C.2       11 UNK         0.5709 
     67 N          37.4785   26.4472    4.4489 N.am      11 UNK        -0.7358 
     68 O          38.1428   26.8498    2.3799 O.2       11 UNK        -0.4999 
     69 C69        35.4231   27.7162    1.6589 C.3       12 UNK        -0.0954 
     70 S70        34.1011   28.9176    1.2800 S.3       12 UNK        -0.2268 
     71 C71        32.7242   27.8353    0.7895 C.3       12 UNK         0.0203 
     72 H72        29.8725   17.5930    0.9973 H         1 UNK         0.0888 
     73 H73        28.9711   17.9724    2.4660 H         1 UNK         0.0888 
     74 H74        28.1075   17.5357    0.9898 H         1 UNK         0.0888 
     75 H75        28.8724   20.1671    2.8687 H         1 UNK         0.3017 
     76 H76        29.5886   22.1456    0.9033 H         1 UNK         0.0873 
     77 H77        29.3821   23.7362    2.8067 H         1 UNK         0.0745 
     78 H78        28.6452   22.5118    3.7867 H         1 UNK         0.0745 
     79 H79        33.1734   22.9508    3.0043 H         1 UNK         0.0705 
     80 H80        32.0973   22.9327    1.6285 H         1 UNK         0.0705 
     81 H81        32.9704   25.1346    1.0032 H         1 UNK         0.1334 
     82 H82        31.3661   28.5389    3.0391 H         1 UNK         0.1417 
     83 H83        30.8969   24.6301    4.7263 H         1 UNK         0.1562 
     84 H84        30.2920   28.2895    5.1925 H         1 UNK         0.0748 
     85 H85        30.6096   26.8337    6.0991 H         1 UNK         0.0748 
     86 H86        27.8505   29.0074    5.2593 H         1 UNK         0.0940 
     87 H87        26.5660   28.0910    4.5166 H         1 UNK         0.0940 
     88 H88        29.1397   28.9969    3.1639 H         1 UNK         0.0703 
     89 H89        27.4141   26.9337    2.2802 H         1 UNK         0.3081 
     90 H90        28.3668   27.0273   -1.1251 H         1 UNK         0.0719 
     91 H91        29.4720   25.1987    1.0635 H         1 UNK         0.0809 
     92 H92        29.2340   24.7181   -0.6191 H         1 UNK         0.0809 
     93 H93        30.3842   25.9814   -0.2164 H         1 UNK         0.0809 
     94 H94        26.9684   25.0844    0.4661 H         1 UNK         0.2990 
     95 H95        24.0757   26.1089    0.7614 H         1 UNK         0.0690 
     96 H96        22.6409   25.4457   -1.1879 H         1 UNK         0.0788 
     97 H97        23.9886   25.7595   -2.2811 H         1 UNK         0.0788 
     98 H98        23.2754   27.0725   -1.3585 H         1 UNK         0.0788 
     99 H99        24.5185   23.9666    0.9427 H         1 UNK         0.2993 
    100 H100       24.8329   21.8622    0.5273 H         1 UNK         0.0949 
    101 H101       25.9552   21.0247   -2.1966 H         1 UNK         0.0767 
    102 H102       25.2654   19.9621   -0.9709 H         1 UNK         0.0767 
    103 H103       24.2447   21.1264   -1.8001 H         1 UNK         0.0767 
    104 H104       27.3983   20.9944   -0.1559 H         1 UNK         0.3013 
    105 H105       26.7252   29.4276    0.9864 H         1 UNK         0.3121 
    106 H106       25.8463   32.0968    1.7596 H         1 UNK         0.0774 
    107 H107       25.8368   30.6485   -0.9464 H         1 UNK         0.0815 
    108 H108       25.0210   32.1660   -0.5932 H         1 UNK         0.0815 
    109 H109       24.5010   30.6891    0.2030 H         1 UNK         0.0815 
    110 H110       28.7200   30.6880    0.2377 H         1 UNK         0.2987 
    111 H111       29.5710   33.1432   -1.0736 H         1 UNK         0.0949 
    112 H112       31.0830   30.5348   -0.5243 H         1 UNK         0.0806 
    113 H113       30.1547   30.8945   -1.9787 H         1 UNK         0.0806 
    114 H114       31.6001   31.8205   -1.6040 H         1 UNK         0.0806 
    115 H115       30.3559   31.4662    1.9990 H         1 UNK         0.3010 
    116 H116       31.3691   33.7984    3.2788 H         1 UNK         0.0829 
    117 H117       33.4446   33.2541    1.9345 H         1 UNK         0.0813 
    118 H118       33.7178   32.9263    3.6341 H         1 UNK         0.0813 
    119 H119       33.4006   31.5972    2.5310 H         1 UNK         0.0813 
    120 H120       31.9819   33.2132    5.5415 H         1 UNK         0.3038 
    121 H121       30.1401   31.4269    6.7183 H         1 UNK         0.0769 
    122 H122       32.6415   32.7394    7.9170 H         1 UNK         0.0811 
    123 H123       31.3381   32.0041    8.8391 H         1 UNK         0.0811 
    124 H124       31.0204   33.4363    7.8762 H         1 UNK         0.0811 
    125 H125       33.4370   30.8443    5.6443 H         1 UNK         0.3204 
    126 H126       33.1077   28.0366    5.7214 H         1 UNK         0.0748 
    127 H127       35.1127   27.5297    7.1744 H         1 UNK         0.0771 
    128 H128       35.2252   29.2272    7.6226 H         1 UNK         0.0771 
    129 H129       33.8336   28.2674    8.1205 H         1 UNK         0.0771 
    130 H130       34.7229   27.0840    4.3567 H         1 UNK         0.2980 
    131 H131       36.5621   28.9728    2.9605 H         1 UNK         0.0545 
    132 H132       38.2736   25.8437    4.5888 H         1 UNK         0.3459 
    133 H133       36.8380   26.6185    5.2062 H         1 UNK         0.3459 
    134 H134       35.0283   26.7006    1.6280 H         1 UNK         0.0616 
    135 H135       36.1526   27.7797    0.8497 H         1 UNK         0.0616 
    136 H136       33.0285   27.2457   -0.0765 H         1 UNK         0.0634 
    137 H137       31.8962   28.4596    0.4547 H         1 UNK         0.0634 
@<TRIPOS>BOND
     1    1    2 1    
     2    1   72 1    
     3    1   73 1    
     4    1   74 1    
     5    2    3 2    
     6    2    4 am   BACKBONE|DICT|INTERRES
     7    4    5 1    
     8    4   75 1    
     9    5    6 1    
    10    5   35 1    
    11    5   76 1    
    12    6    7 1    
    13    6   77 1    
    14    6   78 1    
    15    7    8 1    
    16    8    9 1    
    17    8   79 1    
    18    8   80 1    
    19    9   10 ar   
    20    9   14 ar   
    21   10   11 ar   
    22   10   81 1    
    23   11   12 ar   
    24   11   71 1    
    25   12   13 ar   
    26   12   82 1    
    27   13   14 ar   
    28   13   15 1    
    29   14   83 1    
    30   15   16 1    
    31   15   84 1    
    32   15   85 1    
    33   16   17 1    
    34   17   18 1    
    35   17   86 1    
    36   17   87 1    
    37   18   19 1    
    38   18   37 1    
    39   18   88 1    
    40   19   20 am   BACKBONE|DICT|INTERRES
    41   19   89 1    
    42   20   21 2    
    43   20   22 1    
    44   22   23 1    
    45   22   24 1    
    46   22   90 1    
    47   23   91 1    
    48   23   92 1    
    49   23   93 1    
    50   24   25 am   BACKBONE|DICT|INTERRES
    51   24   94 1    
    52   25   26 2    
    53   25   27 1    
    54   27   28 1    
    55   27   29 1    
    56   27   95 1    
    57   28   96 1    
    58   28   97 1    
    59   28   98 1    
    60   29   30 am   BACKBONE|DICT|INTERRES
    61   29   99 1    
    62   30   31 2    
    63   30   32 1    
    64   32   33 1    
    65   32   34 1    
    66   32  100 1    
    67   33  101 1    
    68   33  102 1    
    69   33  103 1    
    70   34   35 am   BACKBONE|DICT|INTERRES
    71   34  104 1    
    72   35   36 2    
    73   37   38 2    
    74   37   39 am   BACKBONE|DICT|INTERRES
    75   39   40 1    
    76   39  105 1    
    77   40   41 1    
    78   40   42 1    
    79   40  106 1    
    80   41  107 1    
    81   41  108 1    
    82   41  109 1    
    83   42   43 2    
    84   42   44 am   BACKBONE|DICT|INTERRES
    85   44   45 1    
    86   44  110 1    
    87   45   46 1    
    88   45   47 1    
    89   45  111 1    
    90   46  112 1    
    91   46  113 1    
    92   46  114 1    
    93   47   48 2    
    94   47   49 am   BACKBONE|DICT|INTERRES
    95   49   50 1    
    96   49  115 1    
    97   50   51 1    
    98   50   52 1    
    99   50  116 1    
   100   51  117 1    
   101   51  118 1    
   102   51  119 1    
   103   52   53 2    
   104   52   54 am   BACKBONE|DICT|INTERRES
   105   54   55 1    
   106   54  120 1    
   107   55   56 1    
   108   55   57 1    
   109   55  121 1    
   110   56  122 1    
   111   56  123 1    
   112   56  124 1    
   113   57   58 2    
   114   57   59 am   BACKBONE|DICT|INTERRES
   115   59   60 1    
   116   59  125 1    
   117   60   61 1    
   118   60   62 1    
   119   60  126 1    
   120   61  127 1    
   121   61  128 1    
   122   61  129 1    
   123   62   63 2    
   124   62   64 am   BACKBONE|DICT|INTERRES
   125   64   65 1    
   126   64  130 1    
   127   65   66 1    
   128   65   69 1    
   129   65  131 1    
   130   66   67 am   BACKBONE|DICT|INTERRES
   131   66   68 2    
   132   67  132 1    
   133   67  133 1    
   134   69   70 1    
   135   69  134 1    
   136   69  135 1    
   137   70   71 1    
   138   71  136 1    
   139   71  137 1    
@<TRIPOS>SUBSTRUCTURE
     1 UNK         1 GROUP             0       ****    0 ROOT    
