@<TRIPOS>MOLECULE
3R136
137   139    1
SMALL
USER_CHARGES


@<TRIPOS>ATOM
      1 CA         30.5911   20.4882   -3.0324 C.3       0 UNK        -0.1979 
      2 C          30.2343   21.8834   -2.5425 C.2       0 UNK         0.4864 
      3 O          30.0456   22.7901   -3.3557 O.2       0 UNK        -0.5359 
      4 N          30.1271   22.0654   -1.2198 N.am      1 UNK        -0.4318 
      5 CA         29.8159   23.3347   -0.5492 C.3       1 UNK         0.0824 
      6 C6         30.3126   23.3395    0.9211 C.3       12 UNK        -0.0944 
      7 S7         32.1242   23.1722    1.0516 S.3       12 UNK        -0.2672 
      8 C8         32.2900   22.2448    2.6105 C.3       12 UNK         0.0333 
      9 C9         31.9902   23.1173    3.8218 C.ar      12 UNK        -0.0807 
     10 C10        33.0158   23.8482    4.4313 C.ar      12 UNK        -0.0894 
     11 C11        32.7546   24.6516    5.5506 C.ar      12 UNK        -0.0804 
     12 C12        31.4503   24.7140    6.0472 C.ar      12 UNK        -0.0824 
     13 C13        30.4098   24.0191    5.4252 C.ar      12 UNK        -0.0762 
     14 C14        30.6889   23.2041    4.3260 C.ar      12 UNK        -0.0782 
     15 C15        28.9785   24.1915    5.9151 C.3       12 UNK         0.0230 
     16 S16        28.0644   25.4179    4.9183 S.3       12 UNK        -0.2608 
     17 C17        29.0793   26.9197    5.1682 C.3       12 UNK        -0.0989 
     18 CA         28.6599   28.1399    4.3144 C.3       5 UNK         0.0716 
     19 N          28.5589   27.8145    2.8917 N.am      5 UNK        -0.4135 
     20 C          29.4356   28.1573    1.9447 C.2       4 UNK         0.5031 
     21 O          30.5331   28.6606    2.1834 O.2       4 UNK        -0.5229 
     22 CA         29.0218   27.9208    0.4780 C.3       4 UNK         0.0329 
     23 CB         30.1024   27.1530   -0.2986 C.3       4 UNK        -0.2001 
     24 N          27.7283   27.2486    0.3049 N.am      4 UNK        -0.4303 
     25 C          26.5289   27.8176    0.4879 C.2       3 UNK         0.5044 
     26 O          26.3940   28.9398    0.9774 O.2       3 UNK        -0.5152 
     27 CA         25.2732   26.9953    0.1320 C.3       3 UNK         0.0319 
     28 CB         24.2278   27.8473   -0.6173 C.3       3 UNK        -0.2001 
     29 N          25.5517   25.7367   -0.5778 N.am      3 UNK        -0.4354 
     30 C          26.0799   25.5746   -1.8009 C.2       2 UNK         0.4964 
     31 O          26.3746   26.4991   -2.5596 O.2       2 UNK        -0.5047 
     32 CA         26.4042   24.1255   -2.2069 C.3       2 UNK         0.0288 
     33 CB         26.1692   23.8841   -3.7088 C.3       2 UNK        -0.2113 
     34 N          27.7913   23.7817   -1.8819 N.am      2 UNK        -0.4145 
     35 C          28.3114   23.6804   -0.6509 C.2       1 UNK         0.5006 
     36 O          27.6473   23.8476    0.3738 O.2       1 UNK        -0.5103 
     37 C          27.3909   28.8630    4.8198 C.2       5 UNK         0.5055 
     38 O          27.2208   29.0038    6.0324 O.2       5 UNK        -0.5220 
     39 N          26.5339   29.3265    3.8962 N.am      6 UNK        -0.4450 
     40 CA         25.3425   30.1302    4.1730 C.3       6 UNK         0.0367 
     41 CB         24.0826   29.3389    3.7809 C.3       6 UNK        -0.1929 
     42 C          25.4158   31.4609    3.4111 C.2       6 UNK         0.5070 
     43 O          25.2258   32.5173    4.0134 O.2       6 UNK        -0.5237 
     44 N          25.7135   31.3896    2.1069 N.am      7 UNK        -0.4739 
     45 CA         25.8830   32.5375    1.2111 C.3       7 UNK         0.0276 
     46 CB         25.3459   32.1470   -0.1769 C.3       7 UNK        -0.1927 
     47 C          27.3492   33.0005    1.1084 C.2       7 UNK         0.5013 
     48 O          27.6164   34.0129    0.4593 O.2       7 UNK        -0.5193 
     49 N          28.2700   32.2566    1.7292 N.am      8 UNK        -0.4253 
     50 CA         29.7095   32.4952    1.7665 C.3       8 UNK         0.0242 
     51 CB         30.3626   31.9788    0.4660 C.3       8 UNK        -0.2000 
     52 C          30.2724   31.8172    3.0257 C.2       8 UNK         0.4948 
     53 O          29.4966   31.4289    3.9035 O.2       8 UNK        -0.5275 
     54 N          31.6003   31.6741    3.0907 N.am      9 UNK        -0.4246 
     55 CA         32.3117   30.9523    4.1414 C.3       9 UNK         0.0261 
     56 CB         32.7268   31.9277    5.2599 C.3       9 UNK        -0.1959 
     57 C          33.5054   30.2318    3.5036 C.2       9 UNK         0.5033 
     58 O          34.6262   30.7415    3.5576 O.2       9 UNK        -0.5390 
     59 N          33.2325   29.0753    2.8825 N.am      10 UNK        -0.4215 
     60 CA         34.1681   28.2278    2.1256 C.3       10 UNK         0.0240 
     61 CB         33.4707   26.9005    1.7798 C.3       10 UNK        -0.1982 
     62 C          35.5200   27.9297    2.8012 C.2       10 UNK         0.4970 
     63 O          36.5323   27.8456    2.1042 O.2       10 UNK        -0.4916 
     64 N          35.5110   27.7716    4.1293 N.am      11 UNK        -0.4279 
     65 CA         36.7048   27.5143    4.9507 C.3       11 UNK         0.1003 
     66 C          37.5298   28.7903    5.2931 C.2       11 UNK         0.5709 
     67 N          37.0951   29.9938    4.9359 N.am      11 UNK        -0.7358 
     68 O          38.5996   28.6847    5.8885 O.2       11 UNK        -0.4999 
     69 C69        36.3622   26.6970    6.2260 C.3       12 UNK        -0.0954 
     70 S70        35.5482   25.1095    5.8387 S.3       12 UNK        -0.2268 
     71 C71        33.8136   25.5305    6.2160 C.3       12 UNK         0.0203 
     72 H72        30.7303   19.7896   -2.2076 H         1 UNK         0.0888 
     73 H73        29.7997   20.1024   -3.6745 H         1 UNK         0.0888 
     74 H74        31.5146   20.5191   -3.6099 H         1 UNK         0.0888 
     75 H75        30.2814   21.2808   -0.6029 H         1 UNK         0.3017 
     76 H76        30.3475   24.1304   -1.0755 H         1 UNK         0.0873 
     77 H77        30.0345   24.2634    1.4319 H         1 UNK         0.0745 
     78 H78        29.8312   22.5315    1.4741 H         1 UNK         0.0745 
     79 H79        31.6368   21.3710    2.5952 H         1 UNK         0.0705 
     80 H80        33.3078   21.8579    2.6791 H         1 UNK         0.0705 
     81 H81        34.0106   23.7974    4.0123 H         1 UNK         0.1334 
     82 H82        31.2324   25.3500    6.8948 H         1 UNK         0.1417 
     83 H83        29.8851   22.6617    3.8478 H         1 UNK         0.1562 
     84 H84        28.9646   24.4965    6.9626 H         1 UNK         0.0748 
     85 H85        28.4552   23.2353    5.8689 H         1 UNK         0.0748 
     86 H86        30.1070   26.6844    4.8945 H         1 UNK         0.0940 
     87 H87        29.1045   27.1674    6.2310 H         1 UNK         0.0940 
     88 H88        29.4475   28.8836    4.4441 H         1 UNK         0.0703 
     89 H89        27.7202   27.3280    2.6121 H         1 UNK         0.3081 
     90 H90        28.9316   28.9084    0.0211 H         1 UNK         0.0719 
     91 H91        31.0045   27.7576   -0.3970 H         1 UNK         0.0809 
     92 H92        29.7751   26.9061   -1.3089 H         1 UNK         0.0809 
     93 H93        30.3831   26.2302    0.2063 H         1 UNK         0.0809 
     94 H94        27.7472   26.2986   -0.0370 H         1 UNK         0.2990 
     95 H95        24.8325   26.7055    1.0869 H         1 UNK         0.0690 
     96 H96        23.3325   27.2685   -0.8440 H         1 UNK         0.0788 
     97 H97        24.6203   28.2413   -1.5551 H         1 UNK         0.0788 
     98 H98        23.9150   28.7023   -0.0163 H         1 UNK         0.0788 
     99 H99        25.4235   24.9009   -0.0211 H         1 UNK         0.2993 
    100 H100       25.7449   23.4534   -1.6532 H         1 UNK         0.0949 
    101 H101       25.1474   24.1422   -3.9904 H         1 UNK         0.0767 
    102 H102       26.8399   24.4834   -4.3262 H         1 UNK         0.0767 
    103 H103       26.3226   22.8367   -3.9699 H         1 UNK         0.0767 
    104 H104       28.4204   23.6126   -2.6625 H         1 UNK         0.3013 
    105 H105       26.7539   29.1946    2.9155 H         1 UNK         0.3121 
    106 H106       25.2784   30.3680    5.2370 H         1 UNK         0.0774 
    107 H107       23.1815   29.9258    3.9634 H         1 UNK         0.0815 
    108 H108       24.0846   29.0624    2.7259 H         1 UNK         0.0815 
    109 H109       23.9964   28.4227    4.3651 H         1 UNK         0.0815 
    110 H110       25.8563   30.4763    1.6773 H         1 UNK         0.2987 
    111 H111       25.2991   33.3835    1.5803 H         1 UNK         0.0949 
    112 H112       24.2969   31.8546   -0.1279 H         1 UNK         0.0806 
    113 H113       25.4160   32.9822   -0.8751 H         1 UNK         0.0806 
    114 H114       25.9054   31.3143   -0.6056 H         1 UNK         0.0806 
    115 H115       27.9590   31.5043    2.3292 H         1 UNK         0.3010 
    116 H116       29.8881   33.5682    1.8628 H         1 UNK         0.0829 
    117 H117       29.8751   32.3923   -0.4170 H         1 UNK         0.0813 
    118 H118       31.4132   32.2631    0.4053 H         1 UNK         0.0813 
    119 H119       30.3119   30.8922    0.3945 H         1 UNK         0.0813 
    120 H120       32.1697   31.9973    2.3205 H         1 UNK         0.3038 
    121 H121       31.6635   30.1875    4.5757 H         1 UNK         0.0769 
    122 H122       33.3460   32.7407    4.8790 H         1 UNK         0.0811 
    123 H123       33.2993   31.4138    6.0330 H         1 UNK         0.0811 
    124 H124       31.8543   32.3697    5.7411 H         1 UNK         0.0811 
    125 H125       32.2482   28.8190    2.7977 H         1 UNK         0.3204 
    126 H126       34.3845   28.7541    1.1941 H         1 UNK         0.0748 
    127 H127       34.1304   26.2402    1.2148 H         1 UNK         0.0771 
    128 H128       33.1598   26.3612    2.6758 H         1 UNK         0.0771 
    129 H129       32.5857   27.0645    1.1694 H         1 UNK         0.0771 
    130 H130       34.6396   27.8796    4.6228 H         1 UNK         0.2980 
    131 H131       37.3804   26.8942    4.3583 H         1 UNK         0.0545 
    132 H132       36.2228   30.1151    4.4290 H         1 UNK         0.3459 
    133 H133       37.6517   30.8012    5.1652 H         1 UNK         0.3459 
    134 H134       37.2719   26.4632    6.7822 H         1 UNK         0.0616 
    135 H135       35.7368   27.2805    6.9041 H         1 UNK         0.0616 
    136 H136       33.6893   25.4988    7.2996 H         1 UNK         0.0634 
    137 H137       33.6200   26.5593    5.9121 H         1 UNK         0.0634 
@<TRIPOS>BOND
     1    1    2 1    
     2    1   72 1    
     3    1   73 1    
     4    1   74 1    
     5    2    3 2    
     6    2    4 am   BACKBONE|DICT|INTERRES
     7    4    5 1    
     8    4   75 1    
     9    5    6 1    
    10    5   35 1    
    11    5   76 1    
    12    6    7 1    
    13    6   77 1    
    14    6   78 1    
    15    7    8 1    
    16    8    9 1    
    17    8   79 1    
    18    8   80 1    
    19    9   10 ar   
    20    9   14 ar   
    21   10   11 ar   
    22   10   81 1    
    23   11   12 ar   
    24   11   71 1    
    25   12   13 ar   
    26   12   82 1    
    27   13   14 ar   
    28   13   15 1    
    29   14   83 1    
    30   15   16 1    
    31   15   84 1    
    32   15   85 1    
    33   16   17 1    
    34   17   18 1    
    35   17   86 1    
    36   17   87 1    
    37   18   19 1    
    38   18   37 1    
    39   18   88 1    
    40   19   20 am   BACKBONE|DICT|INTERRES
    41   19   89 1    
    42   20   21 2    
    43   20   22 1    
    44   22   23 1    
    45   22   24 1    
    46   22   90 1    
    47   23   91 1    
    48   23   92 1    
    49   23   93 1    
    50   24   25 am   BACKBONE|DICT|INTERRES
    51   24   94 1    
    52   25   26 2    
    53   25   27 1    
    54   27   28 1    
    55   27   29 1    
    56   27   95 1    
    57   28   96 1    
    58   28   97 1    
    59   28   98 1    
    60   29   30 am   BACKBONE|DICT|INTERRES
    61   29   99 1    
    62   30   31 2    
    63   30   32 1    
    64   32   33 1    
    65   32   34 1    
    66   32  100 1    
    67   33  101 1    
    68   33  102 1    
    69   33  103 1    
    70   34   35 am   BACKBONE|DICT|INTERRES
    71   34  104 1    
    72   35   36 2    
    73   37   38 2    
    74   37   39 am   BACKBONE|DICT|INTERRES
    75   39   40 1    
    76   39  105 1    
    77   40   41 1    
    78   40   42 1    
    79   40  106 1    
    80   41  107 1    
    81   41  108 1    
    82   41  109 1    
    83   42   43 2    
    84   42   44 am   BACKBONE|DICT|INTERRES
    85   44   45 1    
    86   44  110 1    
    87   45   46 1    
    88   45   47 1    
    89   45  111 1    
    90   46  112 1    
    91   46  113 1    
    92   46  114 1    
    93   47   48 2    
    94   47   49 am   BACKBONE|DICT|INTERRES
    95   49   50 1    
    96   49  115 1    
    97   50   51 1    
    98   50   52 1    
    99   50  116 1    
   100   51  117 1    
   101   51  118 1    
   102   51  119 1    
   103   52   53 2    
   104   52   54 am   BACKBONE|DICT|INTERRES
   105   54   55 1    
   106   54  120 1    
   107   55   56 1    
   108   55   57 1    
   109   55  121 1    
   110   56  122 1    
   111   56  123 1    
   112   56  124 1    
   113   57   58 2    
   114   57   59 am   BACKBONE|DICT|INTERRES
   115   59   60 1    
   116   59  125 1    
   117   60   61 1    
   118   60   62 1    
   119   60  126 1    
   120   61  127 1    
   121   61  128 1    
   122   61  129 1    
   123   62   63 2    
   124   62   64 am   BACKBONE|DICT|INTERRES
   125   64   65 1    
   126   64  130 1    
   127   65   66 1    
   128   65   69 1    
   129   65  131 1    
   130   66   67 am   BACKBONE|DICT|INTERRES
   131   66   68 2    
   132   67  132 1    
   133   67  133 1    
   134   69   70 1    
   135   69  134 1    
   136   69  135 1    
   137   70   71 1    
   138   71  136 1    
   139   71  137 1    
@<TRIPOS>SUBSTRUCTURE
     1 UNK         1 GROUP             0       ****    0 ROOT    
