@<TRIPOS>MOLECULE
3R136
137   139    1
SMALL
USER_CHARGES


@<TRIPOS>ATOM
      1 CA         30.8281   27.4231   -4.4487 C.3       0 UNK        -0.1979 
      2 C          30.1695   26.8179   -3.2176 C.2       0 UNK         0.4864 
      3 O          29.0871   27.2566   -2.8267 O.2       0 UNK        -0.5359 
      4 N          30.8161   25.8190   -2.6014 N.am      1 UNK        -0.4318 
      5 CA         30.3588   25.0896   -1.4117 C.3       1 UNK         0.0824 
      6 C6         31.5386   24.3286   -0.7473 C.3       12 UNK        -0.0944 
      7 S7         32.6305   25.4376    0.2096 S.3       12 UNK        -0.2672 
      8 C8         33.1732   24.3590    1.5818 C.3       12 UNK         0.0333 
      9 C9         32.2405   24.4192    2.7881 C.ar      12 UNK        -0.0807 
     10 C10        32.6096   25.1258    3.9380 C.ar      12 UNK        -0.0894 
     11 C11        31.7640   25.1696    5.0532 C.ar      12 UNK        -0.0804 
     12 C12        30.5222   24.5254    5.0003 C.ar      12 UNK        -0.0824 
     13 C13        30.1493   23.8014    3.8636 C.ar      12 UNK        -0.0762 
     14 C14        31.0249   23.7312    2.7782 C.ar      12 UNK        -0.0782 
     15 C15        28.8241   23.0514    3.8123 C.3       12 UNK         0.0230 
     16 S16        27.4133   24.1216    3.3787 S.3       12 UNK        -0.2608 
     17 C17        27.8422   24.7408    1.7069 C.3       12 UNK        -0.0989 
     18 CA         27.6365   26.2675    1.5362 C.3       5 UNK         0.0716 
     19 N          26.2302   26.6320    1.7282 N.am      5 UNK        -0.4135 
     20 C          25.6860   27.8486    1.6056 C.2       4 UNK         0.5031 
     21 O          26.3403   28.8820    1.4607 O.2       4 UNK        -0.5229 
     22 CA         24.1434   27.8958    1.6089 C.3       4 UNK         0.0329 
     23 CB         23.5964   29.3354    1.5747 C.3       4 UNK        -0.2001 
     24 N          23.6051   27.1513    0.4646 N.am      4 UNK        -0.4303 
     25 C          23.5517   25.8149    0.3708 C.2       3 UNK         0.5044 
     26 O          23.8181   25.0599    1.3086 O.2       3 UNK        -0.5152 
     27 CA         23.2304   25.2005   -1.0058 C.3       3 UNK         0.0319 
     28 CB         22.6436   26.1992   -2.0308 C.3       3 UNK        -0.2001 
     29 N          24.4125   24.5158   -1.5519 N.am      3 UNK        -0.4354 
     30 C          25.6091   25.0672   -1.8101 C.2       2 UNK         0.4964 
     31 O          25.8542   26.2715   -1.7017 O.2       2 UNK        -0.5047 
     32 CA         26.7206   24.1140   -2.2688 C.3       2 UNK         0.0288 
     33 CB         26.5828   23.7724   -3.7633 C.3       2 UNK        -0.2113 
     34 N          28.0070   24.7612   -2.0294 N.am      2 UNK        -0.4145 
     35 C          29.1648   24.1597   -1.7425 C.2       1 UNK         0.5006 
     36 O          29.3054   22.9351   -1.7279 O.2       1 UNK        -0.5103 
     37 C          28.6240   27.0944    2.3846 C.2       5 UNK         0.5055 
     38 O          29.6682   27.5063    1.8794 O.2       5 UNK        -0.5220 
     39 N          28.2421   27.3694    3.6386 N.am      6 UNK        -0.4450 
     40 CA         29.0292   28.1262    4.6099 C.3       6 UNK         0.0367 
     41 CB         28.4209   27.9338    6.0085 C.3       6 UNK        -0.1929 
     42 C          29.1929   29.6216    4.2784 C.2       6 UNK         0.5070 
     43 O          30.0262   30.2760    4.9010 O.2       6 UNK        -0.5237 
     44 N          28.4186   30.1516    3.3203 N.am      7 UNK        -0.4739 
     45 CA         28.5713   31.5220    2.8233 C.3       7 UNK         0.0276 
     46 CB         27.2287   32.0085    2.2530 C.3       7 UNK        -0.1927 
     47 C          29.6834   31.6496    1.7649 C.2       7 UNK         0.5013 
     48 O          30.1167   32.7698    1.4923 O.2       7 UNK        -0.5193 
     49 N          30.1139   30.5257    1.1726 N.am      8 UNK        -0.4253 
     50 CA         31.0915   30.4828    0.0814 C.3       8 UNK         0.0242 
     51 CB         30.6817   29.3700   -0.8965 C.3       8 UNK        -0.2000 
     52 C          32.5396   30.2670    0.5576 C.2       8 UNK         0.4948 
     53 O          33.4412   30.2477   -0.2813 O.2       8 UNK        -0.5275 
     54 N          32.7515   30.0965    1.8663 N.am      9 UNK        -0.4246 
     55 CA         34.0473   29.8344    2.4875 C.3       9 UNK         0.0261 
     56 CB         34.1895   28.3172    2.7069 C.3       9 UNK        -0.1959 
     57 C          34.1447   30.6050    3.8100 C.2       9 UNK         0.5033 
     58 O          33.1357   31.1182    4.2977 O.2       9 UNK        -0.5390 
     59 N          35.3607   30.6755    4.3681 N.am      10 UNK        -0.4215 
     60 CA         35.6304   31.2994    5.6683 C.3       10 UNK         0.0240 
     61 CB         37.1412   31.5429    5.8221 C.3       10 UNK        -0.1982 
     62 C          35.0913   30.4698    6.8470 C.2       10 UNK         0.4970 
     63 O          34.5963   31.0511    7.8133 O.2       10 UNK        -0.4916 
     64 N          35.2031   29.1372    6.7380 N.am      11 UNK        -0.4279 
     65 CA         34.7191   28.1349    7.7063 C.3       11 UNK         0.1003 
     66 C          35.3871   28.1990    9.1157 C.2       11 UNK         0.5709 
     67 N          36.5555   28.8130    9.2638 N.am      11 UNK        -0.7358 
     68 O          34.8639   27.6545   10.0852 O.2       11 UNK        -0.4999 
     69 C69        33.1648   28.0624    7.7674 C.3       12 UNK        -0.0954 
     70 S70        32.4294   27.6452    6.1507 S.3       12 UNK        -0.2268 
     71 C71        32.2243   25.8485    6.3371 C.3       12 UNK         0.0203 
     72 H72        30.9802   28.4926   -4.3041 H         1 UNK         0.0888 
     73 H73        31.7963   26.9684   -4.6596 H         1 UNK         0.0888 
     74 H74        30.1898   27.2847   -5.3208 H         1 UNK         0.0888 
     75 H75        31.6998   25.5067   -2.9784 H         1 UNK         0.3017 
     76 H76        29.9855   25.8207   -0.6903 H         1 UNK         0.0873 
     77 H77        31.1733   23.5481   -0.0844 H         1 UNK         0.0745 
     78 H78        32.1361   23.8068   -1.4978 H         1 UNK         0.0745 
     79 H79        33.2671   23.3299    1.2318 H         1 UNK         0.0705 
     80 H80        34.1780   24.6662    1.8758 H         1 UNK         0.0705 
     81 H81        33.5676   25.6255    3.9777 H         1 UNK         0.1334 
     82 H82        29.8580   24.5585    5.8531 H         1 UNK         0.1417 
     83 H83        30.7482   23.1318    1.9260 H         1 UNK         0.1562 
     84 H84        28.6293   22.5948    4.7839 H         1 UNK         0.0748 
     85 H85        28.8760   22.2270    3.0992 H         1 UNK         0.0748 
     86 H86        27.2184   24.2064    0.9886 H         1 UNK         0.0940 
     87 H87        28.8641   24.4752    1.4444 H         1 UNK         0.0940 
     88 H88        27.8591   26.5113    0.4955 H         1 UNK         0.0703 
     89 H89        25.5855   25.8550    1.8336 H         1 UNK         0.3081 
     90 H90        23.7999   27.4282    2.5344 H         1 UNK         0.0719 
     91 H91        23.8993   29.8623    0.6687 H         1 UNK         0.0809 
     92 H92        22.5074   29.3476    1.6223 H         1 UNK         0.0809 
     93 H93        23.9639   29.9125    2.4248 H         1 UNK         0.0809 
     94 H94        23.4322   27.6861   -0.3747 H         1 UNK         0.2990 
     95 H95        22.4771   24.4315   -0.8275 H         1 UNK         0.0690 
     96 H96        22.3584   25.6872   -2.9502 H         1 UNK         0.0788 
     97 H97        23.3478   26.9861   -2.3028 H         1 UNK         0.0788 
     98 H98        21.7437   26.6782   -1.6422 H         1 UNK         0.0788 
     99 H99        24.3168   23.5150   -1.6590 H         1 UNK         0.2993 
    100 H100       26.6590   23.2004   -1.6732 H         1 UNK         0.0949 
    101 H101       27.3669   23.0872   -4.0864 H         1 UNK         0.0767 
    102 H102       25.6266   23.2912   -3.9718 H         1 UNK         0.0767 
    103 H103       26.6431   24.6665   -4.3855 H         1 UNK         0.0767 
    104 H104       27.9852   25.7791   -2.0747 H         1 UNK         0.3013 
    105 H105       27.3625   26.9900    3.9576 H         1 UNK         0.3121 
    106 H106       30.0302   27.6934    4.6101 H         1 UNK         0.0774 
    107 H107       27.4092   28.3366    6.0678 H         1 UNK         0.0815 
    108 H108       29.0206   28.4413    6.7656 H         1 UNK         0.0815 
    109 H109       28.3841   26.8795    6.2834 H         1 UNK         0.0815 
    110 H110       27.7484   29.5638    2.8339 H         1 UNK         0.2987 
    111 H111       28.8370   32.1766    3.6565 H         1 UNK         0.0949 
    112 H112       26.9386   31.4469    1.3646 H         1 UNK         0.0806 
    113 H113       26.4269   31.9169    2.9859 H         1 UNK         0.0806 
    114 H114       27.2868   33.0592    1.9653 H         1 UNK         0.0806 
    115 H115       29.7427   29.6323    1.4788 H         1 UNK         0.3010 
    116 H116       31.0705   31.4296   -0.4638 H         1 UNK         0.0829 
    117 H117       30.7471   28.3819   -0.4369 H         1 UNK         0.0813 
    118 H118       29.6599   29.5082   -1.2526 H         1 UNK         0.0813 
    119 H119       31.3300   29.3618   -1.7733 H         1 UNK         0.0813 
    120 H120       31.9845   30.2173    2.5150 H         1 UNK         0.3038 
    121 H121       34.8548   30.1859    1.8412 H         1 UNK         0.0769 
    122 H122       35.1271   28.0648    3.2033 H         1 UNK         0.0811 
    123 H123       33.3747   27.9315    3.3198 H         1 UNK         0.0811 
    124 H124       34.1698   27.7785    1.7592 H         1 UNK         0.0811 
    125 H125       36.1439   30.2521    3.8908 H         1 UNK         0.3204 
    126 H126       35.1284   32.2693    5.6918 H         1 UNK         0.0748 
    127 H127       37.3632   32.0228    6.7769 H         1 UNK         0.0771 
    128 H128       37.7104   30.6135    5.7838 H         1 UNK         0.0771 
    129 H129       37.5181   32.1993    5.0376 H         1 UNK         0.0771 
    130 H130       35.6394   28.7615    5.9102 H         1 UNK         0.2980 
    131 H131       35.0594   27.1777    7.3100 H         1 UNK         0.0545 
    132 H132       36.9864   28.8401   10.1744 H         1 UNK         0.3459 
    133 H133       37.0049   29.2544    8.4784 H         1 UNK         0.3459 
    134 H134       32.8329   27.3210    8.4959 H         1 UNK         0.0616 
    135 H135       32.7495   29.0149    8.0995 H         1 UNK         0.0616 
    136 H136       33.1750   25.4104    6.6443 H         1 UNK         0.0634 
    137 H137       31.5192   25.6580    7.1478 H         1 UNK         0.0634 
@<TRIPOS>BOND
     1    1    2 1    
     2    1   72 1    
     3    1   73 1    
     4    1   74 1    
     5    2    3 2    
     6    2    4 am   BACKBONE|DICT|INTERRES
     7    4    5 1    
     8    4   75 1    
     9    5    6 1    
    10    5   35 1    
    11    5   76 1    
    12    6    7 1    
    13    6   77 1    
    14    6   78 1    
    15    7    8 1    
    16    8    9 1    
    17    8   79 1    
    18    8   80 1    
    19    9   10 ar   
    20    9   14 ar   
    21   10   11 ar   
    22   10   81 1    
    23   11   12 ar   
    24   11   71 1    
    25   12   13 ar   
    26   12   82 1    
    27   13   14 ar   
    28   13   15 1    
    29   14   83 1    
    30   15   16 1    
    31   15   84 1    
    32   15   85 1    
    33   16   17 1    
    34   17   18 1    
    35   17   86 1    
    36   17   87 1    
    37   18   19 1    
    38   18   37 1    
    39   18   88 1    
    40   19   20 am   BACKBONE|DICT|INTERRES
    41   19   89 1    
    42   20   21 2    
    43   20   22 1    
    44   22   23 1    
    45   22   24 1    
    46   22   90 1    
    47   23   91 1    
    48   23   92 1    
    49   23   93 1    
    50   24   25 am   BACKBONE|DICT|INTERRES
    51   24   94 1    
    52   25   26 2    
    53   25   27 1    
    54   27   28 1    
    55   27   29 1    
    56   27   95 1    
    57   28   96 1    
    58   28   97 1    
    59   28   98 1    
    60   29   30 am   BACKBONE|DICT|INTERRES
    61   29   99 1    
    62   30   31 2    
    63   30   32 1    
    64   32   33 1    
    65   32   34 1    
    66   32  100 1    
    67   33  101 1    
    68   33  102 1    
    69   33  103 1    
    70   34   35 am   BACKBONE|DICT|INTERRES
    71   34  104 1    
    72   35   36 2    
    73   37   38 2    
    74   37   39 am   BACKBONE|DICT|INTERRES
    75   39   40 1    
    76   39  105 1    
    77   40   41 1    
    78   40   42 1    
    79   40  106 1    
    80   41  107 1    
    81   41  108 1    
    82   41  109 1    
    83   42   43 2    
    84   42   44 am   BACKBONE|DICT|INTERRES
    85   44   45 1    
    86   44  110 1    
    87   45   46 1    
    88   45   47 1    
    89   45  111 1    
    90   46  112 1    
    91   46  113 1    
    92   46  114 1    
    93   47   48 2    
    94   47   49 am   BACKBONE|DICT|INTERRES
    95   49   50 1    
    96   49  115 1    
    97   50   51 1    
    98   50   52 1    
    99   50  116 1    
   100   51  117 1    
   101   51  118 1    
   102   51  119 1    
   103   52   53 2    
   104   52   54 am   BACKBONE|DICT|INTERRES
   105   54   55 1    
   106   54  120 1    
   107   55   56 1    
   108   55   57 1    
   109   55  121 1    
   110   56  122 1    
   111   56  123 1    
   112   56  124 1    
   113   57   58 2    
   114   57   59 am   BACKBONE|DICT|INTERRES
   115   59   60 1    
   116   59  125 1    
   117   60   61 1    
   118   60   62 1    
   119   60  126 1    
   120   61  127 1    
   121   61  128 1    
   122   61  129 1    
   123   62   63 2    
   124   62   64 am   BACKBONE|DICT|INTERRES
   125   64   65 1    
   126   64  130 1    
   127   65   66 1    
   128   65   69 1    
   129   65  131 1    
   130   66   67 am   BACKBONE|DICT|INTERRES
   131   66   68 2    
   132   67  132 1    
   133   67  133 1    
   134   69   70 1    
   135   69  134 1    
   136   69  135 1    
   137   70   71 1    
   138   71  136 1    
   139   71  137 1    
@<TRIPOS>SUBSTRUCTURE
     1 UNK         1 GROUP             0       ****    0 ROOT    
