@<TRIPOS>MOLECULE
3R136
137   139    1
SMALL
USER_CHARGES


@<TRIPOS>ATOM
      1 CA         31.5345   24.7648    0.5094 C.3       0 UNK        -0.1979 
      2 C          31.0709   23.9838   -0.7147 C.2       0 UNK         0.4864 
      3 O          31.6601   24.1353   -1.7835 O.2       0 UNK        -0.5359 
      4 N          30.0322   23.1442   -0.6244 N.am      1 UNK        -0.4318 
      5 CA         29.1897   22.8543    0.5407 C.3       1 UNK         0.0824 
      6 C6         29.4745   21.4448    1.1261 C.3       12 UNK        -0.0944 
      7 S7         31.1806   21.2312    1.7326 S.3       12 UNK        -0.2672 
      8 C8         30.9708   21.4249    3.5302 C.3       12 UNK         0.0333 
      9 C9         30.8516   22.8870    3.9363 C.ar      12 UNK        -0.0807 
     10 C10        32.0044   23.6693    4.0527 C.ar      12 UNK        -0.0894 
     11 C11        31.9293   25.0016    4.4679 C.ar      12 UNK        -0.0804 
     12 C12        30.6762   25.5411    4.7836 C.ar      12 UNK        -0.0824 
     13 C13        29.5111   24.7778    4.6577 C.ar      12 UNK        -0.0762 
     14 C14        29.6055   23.4482    4.2340 C.ar      12 UNK        -0.0782 
     15 C15        28.1630   25.3693    5.0532 C.3       12 UNK         0.0230 
     16 S16        27.8326   26.9856    4.2752 S.3       12 UNK        -0.2608 
     17 C17        27.2481   26.5163    2.6097 C.3       12 UNK        -0.0989 
     18 CA         28.0496   27.1746    1.4594 C.3       5 UNK         0.0716 
     19 N          27.6411   26.6584    0.1492 N.am      5 UNK        -0.4135 
     20 C          28.3267   26.8667   -0.9873 C.2       4 UNK         0.5031 
     21 O          29.4425   27.3883   -1.0051 O.2       4 UNK        -0.5229 
     22 CA         27.6863   26.4462   -2.3264 C.3       4 UNK         0.0329 
     23 CB         28.6614   25.6369   -3.1991 C.3       4 UNK        -0.2001 
     24 N          26.4568   25.6719   -2.1525 N.am      4 UNK        -0.4303 
     25 C          25.2139   26.1680   -2.2354 C.2       3 UNK         0.5044 
     26 O          24.9614   27.3385   -2.5218 O.2       3 UNK        -0.5152 
     27 CA         24.0471   25.2061   -1.9296 C.3       3 UNK         0.0319 
     28 CB         23.4448   24.6618   -3.2348 C.3       3 UNK        -0.2001 
     29 N          24.4096   24.0799   -1.0620 N.am      3 UNK        -0.4354 
     30 C          24.8750   24.1940    0.1893 C.2       2 UNK         0.4964 
     31 O          25.0135   25.2724    0.7648 O.2       2 UNK        -0.5047 
     32 CA         25.3306   22.9091    0.9038 C.3       2 UNK         0.0288 
     33 CB         24.8373   21.6049    0.2347 C.3       2 UNK        -0.2113 
     34 N          26.7906   22.8810    1.0740 N.am      2 UNK        -0.4145 
     35 C          27.7148   22.9582    0.1020 C.2       1 UNK         0.5006 
     36 O          27.4370   23.0905   -1.0947 O.2       1 UNK        -0.5103 
     37 C          27.9097   28.7117    1.4688 C.2       5 UNK         0.5055 
     38 O          26.8367   29.2288    1.1491 O.2       5 UNK        -0.5220 
     39 N          28.9910   29.4045    1.8459 N.am      6 UNK        -0.4450 
     40 CA         29.0404   30.8641    1.9616 C.3       6 UNK         0.0367 
     41 CB         30.4999   31.3243    1.8054 C.3       6 UNK        -0.1929 
     42 C          28.4606   31.3883    3.2886 C.2       6 UNK         0.5070 
     43 O          28.2358   32.5933    3.4002 O.2       6 UNK        -0.5237 
     44 N          28.2706   30.4943    4.2745 N.am      7 UNK        -0.4739 
     45 CA         27.8749   30.7687    5.6659 C.3       7 UNK         0.0276 
     46 CB         26.4378   31.3272    5.7342 C.3       7 UNK        -0.1927 
     47 C          28.8972   31.6424    6.4268 C.2       7 UNK         0.5013 
     48 O          28.5286   32.3649    7.3547 O.2       7 UNK        -0.5193 
     49 N          30.1660   31.5495    6.0171 N.am      8 UNK        -0.4253 
     50 CA         31.3275   32.2783    6.5100 C.3       8 UNK         0.0242 
     51 CB         31.2695   33.7476    6.0464 C.3       8 UNK        -0.2000 
     52 C          32.5684   31.5762    5.9455 C.2       8 UNK         0.4948 
     53 O          32.4379   30.7715    5.0189 O.2       8 UNK        -0.5275 
     54 N          33.7517   31.9238    6.4724 N.am      9 UNK        -0.4246 
     55 CA         35.0618   31.3374    6.1391 C.3       9 UNK         0.0261 
     56 CB         36.1461   32.0223    6.9874 C.3       9 UNK        -0.1959 
     57 C          35.4581   31.3583    4.6474 C.2       9 UNK         0.5033 
     58 O          36.3393   30.5945    4.2483 O.2       9 UNK        -0.5390 
     59 N          34.7776   32.1862    3.8422 N.am      10 UNK        -0.4215 
     60 CA         34.8520   32.2312    2.3792 C.3       10 UNK         0.0240 
     61 CB         33.9491   33.3678    1.8718 C.3       10 UNK        -0.1982 
     62 C          34.4981   30.9038    1.6747 C.2       10 UNK         0.4970 
     63 O          34.8654   30.7419    0.5103 O.2       10 UNK        -0.4916 
     64 N          33.8248   29.9764    2.3737 N.am      11 UNK        -0.4279 
     65 CA         33.6199   28.5891    1.9283 C.3       11 UNK         0.1003 
     66 C          34.9221   27.7417    1.7903 C.2       11 UNK         0.5709 
     67 N          36.0450   28.1409    2.3796 N.am      11 UNK        -0.7358 
     68 O          34.9102   26.7067    1.1291 O.2       11 UNK        -0.4999 
     69 C69        32.5484   27.8651    2.7854 C.3       12 UNK        -0.0954 
     70 S70        33.0328   27.6166    4.5296 S.3       12 UNK        -0.2268 
     71 C71        33.2254   25.8029    4.6057 C.3       12 UNK         0.0203 
     72 H72        31.8136   24.0903    1.3154 H         1 UNK         0.0888 
     73 H73        32.4078   25.3710    0.2686 H         1 UNK         0.0888 
     74 H74        30.7527   25.4343    0.8617 H         1 UNK         0.0888 
     75 H75        29.7021   22.7001   -1.4706 H         1 UNK         0.3017 
     76 H76        29.3378   23.6045    1.3179 H         1 UNK         0.0873 
     77 H77        28.7872   21.2085    1.9400 H         1 UNK         0.0745 
     78 H78        29.3022   20.6804    0.3655 H         1 UNK         0.0745 
     79 H79        31.8366   20.9852    4.0279 H         1 UNK         0.0705 
     80 H80        30.1084   20.8507    3.8719 H         1 UNK         0.0705 
     81 H81        32.9676   23.2325    3.8254 H         1 UNK         0.1334 
     82 H82        30.5968   26.5577    5.1413 H         1 UNK         0.1417 
     83 H83        28.7144   22.8397    4.1661 H         1 UNK         0.1562 
     84 H84        28.1553   25.5027    6.1357 H         1 UNK         0.0748 
     85 H85        27.3448   24.6839    4.8267 H         1 UNK         0.0748 
     86 H86        26.1911   26.7803    2.5408 H         1 UNK         0.0940 
     87 H87        27.2921   25.4315    2.5107 H         1 UNK         0.0940 
     88 H88        29.1009   26.9176    1.6017 H         1 UNK         0.0703 
     89 H89        26.7058   26.2702    0.0988 H         1 UNK         0.3081 
     90 H90        27.4666   27.3728   -2.8605 H         1 UNK         0.0719 
     91 H91        28.9063   24.6764   -2.7486 H         1 UNK         0.0809 
     92 H92        28.2378   25.4420   -4.1843 H         1 UNK         0.0809 
     93 H93        29.5988   26.1732   -3.3533 H         1 UNK         0.0809 
     94 H94        26.5802   24.6960   -1.8959 H         1 UNK         0.2990 
     95 H95        23.2785   25.7847   -1.4127 H         1 UNK         0.0690 
     96 H96        24.1614   24.0514   -3.7859 H         1 UNK         0.0788 
     97 H97        23.1369   25.4763   -3.8923 H         1 UNK         0.0788 
     98 H98        22.5613   24.0530   -3.0417 H         1 UNK         0.0788 
     99 H99        24.3626   23.1570   -1.4697 H         1 UNK         0.2993 
    100 H100       24.8961   22.9518    1.9040 H         1 UNK         0.0949 
    101 H101       25.2657   21.4545   -0.7569 H         1 UNK         0.0767 
    102 H102       25.1031   20.7365    0.8377 H         1 UNK         0.0767 
    103 H103       23.7509   21.5994    0.1338 H         1 UNK         0.0767 
    104 H104       27.1042   22.7925    2.0294 H         1 UNK         0.3013 
    105 H105       29.8355   28.9031    2.0763 H         1 UNK         0.3121 
    106 H106       28.4559   31.3039    1.1503 H         1 UNK         0.0774 
    107 H107       30.5638   32.4132    1.8061 H         1 UNK         0.0815 
    108 H108       31.1266   30.9638    2.6212 H         1 UNK         0.0815 
    109 H109       30.9331   30.9766    0.8674 H         1 UNK         0.0815 
    110 H110       28.4625   29.5237    4.0655 H         1 UNK         0.2987 
    111 H111       27.8737   29.8036    6.1752 H         1 UNK         0.0949 
    112 H112       26.3713   32.3300    5.3114 H         1 UNK         0.0806 
    113 H113       25.7384   30.6879    5.1955 H         1 UNK         0.0806 
    114 H114       26.0904   31.3877    6.7663 H         1 UNK         0.0806 
    115 H115       30.3999   30.8968    5.2778 H         1 UNK         0.3010 
    116 H116       31.3510   32.2229    7.6001 H         1 UNK         0.0829 
    117 H117       32.1413   34.3078    6.3863 H         1 UNK         0.0813 
    118 H118       31.2329   33.8233    4.9586 H         1 UNK         0.0813 
    119 H119       30.3907   34.2563    6.4427 H         1 UNK         0.0813 
    120 H120       33.7555   32.6123    7.2118 H         1 UNK         0.3038 
    121 H121       35.0177   30.2854    6.4289 H         1 UNK         0.0769 
    122 H122       37.1287   31.5903    6.7912 H         1 UNK         0.0811 
    123 H123       35.9524   31.9037    8.0537 H         1 UNK         0.0811 
    124 H124       36.2113   33.0897    6.7725 H         1 UNK         0.0811 
    125 H125       34.0658   32.7583    4.2711 H         1 UNK         0.3204 
    126 H126       35.8844   32.4665    2.1133 H         1 UNK         0.0748 
    127 H127       33.9841   33.4416    0.7837 H         1 UNK         0.0771 
    128 H128       32.9078   33.2120    2.1550 H         1 UNK         0.0771 
    129 H129       34.2645   34.3329    2.2689 H         1 UNK         0.0771 
    130 H130       33.5321   30.1840    3.3229 H         1 UNK         0.2980 
    131 H131       33.2117   28.6552    0.9180 H         1 UNK         0.0545 
    132 H132       36.0644   28.9800    2.9479 H         1 UNK         0.3459 
    133 H133       36.8784   27.5847    2.2776 H         1 UNK         0.3459 
    134 H134       31.6249   28.4431    2.7830 H         1 UNK         0.0616 
    135 H135       32.2927   26.9046    2.3371 H         1 UNK         0.0616 
    136 H136       33.6839   25.5492    5.5620 H         1 UNK         0.0634 
    137 H137       33.9338   25.5009    3.8326 H         1 UNK         0.0634 
@<TRIPOS>BOND
     1    1    2 1    
     2    1   72 1    
     3    1   73 1    
     4    1   74 1    
     5    2    3 2    
     6    2    4 am   BACKBONE|DICT|INTERRES
     7    4    5 1    
     8    4   75 1    
     9    5    6 1    
    10    5   35 1    
    11    5   76 1    
    12    6    7 1    
    13    6   77 1    
    14    6   78 1    
    15    7    8 1    
    16    8    9 1    
    17    8   79 1    
    18    8   80 1    
    19    9   10 ar   
    20    9   14 ar   
    21   10   11 ar   
    22   10   81 1    
    23   11   12 ar   
    24   11   71 1    
    25   12   13 ar   
    26   12   82 1    
    27   13   14 ar   
    28   13   15 1    
    29   14   83 1    
    30   15   16 1    
    31   15   84 1    
    32   15   85 1    
    33   16   17 1    
    34   17   18 1    
    35   17   86 1    
    36   17   87 1    
    37   18   19 1    
    38   18   37 1    
    39   18   88 1    
    40   19   20 am   BACKBONE|DICT|INTERRES
    41   19   89 1    
    42   20   21 2    
    43   20   22 1    
    44   22   23 1    
    45   22   24 1    
    46   22   90 1    
    47   23   91 1    
    48   23   92 1    
    49   23   93 1    
    50   24   25 am   BACKBONE|DICT|INTERRES
    51   24   94 1    
    52   25   26 2    
    53   25   27 1    
    54   27   28 1    
    55   27   29 1    
    56   27   95 1    
    57   28   96 1    
    58   28   97 1    
    59   28   98 1    
    60   29   30 am   BACKBONE|DICT|INTERRES
    61   29   99 1    
    62   30   31 2    
    63   30   32 1    
    64   32   33 1    
    65   32   34 1    
    66   32  100 1    
    67   33  101 1    
    68   33  102 1    
    69   33  103 1    
    70   34   35 am   BACKBONE|DICT|INTERRES
    71   34  104 1    
    72   35   36 2    
    73   37   38 2    
    74   37   39 am   BACKBONE|DICT|INTERRES
    75   39   40 1    
    76   39  105 1    
    77   40   41 1    
    78   40   42 1    
    79   40  106 1    
    80   41  107 1    
    81   41  108 1    
    82   41  109 1    
    83   42   43 2    
    84   42   44 am   BACKBONE|DICT|INTERRES
    85   44   45 1    
    86   44  110 1    
    87   45   46 1    
    88   45   47 1    
    89   45  111 1    
    90   46  112 1    
    91   46  113 1    
    92   46  114 1    
    93   47   48 2    
    94   47   49 am   BACKBONE|DICT|INTERRES
    95   49   50 1    
    96   49  115 1    
    97   50   51 1    
    98   50   52 1    
    99   50  116 1    
   100   51  117 1    
   101   51  118 1    
   102   51  119 1    
   103   52   53 2    
   104   52   54 am   BACKBONE|DICT|INTERRES
   105   54   55 1    
   106   54  120 1    
   107   55   56 1    
   108   55   57 1    
   109   55  121 1    
   110   56  122 1    
   111   56  123 1    
   112   56  124 1    
   113   57   58 2    
   114   57   59 am   BACKBONE|DICT|INTERRES
   115   59   60 1    
   116   59  125 1    
   117   60   61 1    
   118   60   62 1    
   119   60  126 1    
   120   61  127 1    
   121   61  128 1    
   122   61  129 1    
   123   62   63 2    
   124   62   64 am   BACKBONE|DICT|INTERRES
   125   64   65 1    
   126   64  130 1    
   127   65   66 1    
   128   65   69 1    
   129   65  131 1    
   130   66   67 am   BACKBONE|DICT|INTERRES
   131   66   68 2    
   132   67  132 1    
   133   67  133 1    
   134   69   70 1    
   135   69  134 1    
   136   69  135 1    
   137   70   71 1    
   138   71  136 1    
   139   71  137 1    
@<TRIPOS>SUBSTRUCTURE
     1 UNK         1 GROUP             0       ****    0 ROOT    
