@<TRIPOS>MOLECULE
3R136
137   139    1
SMALL
USER_CHARGES


@<TRIPOS>ATOM
      1 CA         28.1106   23.1885   -2.6385 C.3       0 UNK        -0.1979 
      2 C          28.0642   23.5796   -1.1707 C.2       0 UNK         0.4864 
      3 O          27.4236   24.5714   -0.8217 O.2       0 UNK        -0.5359 
      4 N          28.7283   22.8096   -0.2974 N.am      1 UNK        -0.4318 
      5 CA         28.8453   23.0667    1.1464 C.3       1 UNK         0.0824 
      6 C6         29.9230   22.1417    1.7783 C.3       12 UNK        -0.0944 
      7 S7         30.7225   22.6250    3.3583 S.3       12 UNK        -0.2672 
      8 C8         30.6760   24.4453    3.4832 C.3       12 UNK         0.0333 
      9 C9         31.7865   25.1533    2.7086 C.ar      12 UNK        -0.0807 
     10 C10        32.7347   25.9196    3.3938 C.ar      12 UNK        -0.0894 
     11 C11        33.7341   26.6125    2.7013 C.ar      12 UNK        -0.0804 
     12 C12        33.7680   26.5528    1.3044 C.ar      12 UNK        -0.0824 
     13 C13        32.8285   25.7935    0.6009 C.ar      12 UNK        -0.0762 
     14 C14        31.8572   25.0843    1.3138 C.ar      12 UNK        -0.0782 
     15 C15        32.9094   25.7054   -0.9220 C.3       12 UNK         0.0230 
     16 S16        31.2863   25.6162   -1.7567 S.3       12 UNK        -0.2608 
     17 C17        30.7497   27.3593   -1.7481 C.3       12 UNK        -0.0989 
     18 CA         29.1994   27.4738   -1.6986 C.3       5 UNK         0.0716 
     19 N          28.6357   27.0744   -0.4011 N.am      5 UNK        -0.4135 
     20 C          28.6841   27.7713    0.7455 C.2       4 UNK         0.5031 
     21 O          29.2887   28.8377    0.8678 O.2       4 UNK        -0.5229 
     22 CA         27.8661   27.2214    1.9343 C.3       4 UNK         0.0329 
     23 CB         27.5155   28.3148    2.9621 C.3       4 UNK        -0.2001 
     24 N          26.6540   26.4831    1.5513 N.am      4 UNK        -0.4303 
     25 C          25.6499   26.9089    0.7649 C.2       3 UNK         0.5044 
     26 O          25.6278   28.0222    0.2370 O.2       3 UNK        -0.5152 
     27 CA         24.5049   25.9167    0.4787 C.3       3 UNK         0.0319 
     28 CB         24.0061   26.0341   -0.9736 C.3       3 UNK        -0.2001 
     29 N          24.9335   24.5365    0.7135 N.am      3 UNK        -0.4354 
     30 C          24.4198   23.6954    1.6226 C.2       2 UNK         0.4964 
     31 O          23.4523   23.9650    2.3348 O.2       2 UNK        -0.5047 
     32 CA         25.1071   22.3219    1.7862 C.3       2 UNK         0.0288 
     33 CB         24.3257   21.2382    1.0254 C.3       2 UNK        -0.2113 
     34 N          26.5078   22.2981    1.3479 N.am      2 UNK        -0.4145 
     35 C          27.4937   23.0273    1.8930 C.2       1 UNK         0.5006 
     36 O          27.3341   23.7372    2.8866 O.2       1 UNK        -0.5103 
     37 C          28.6620   28.8439   -2.1864 C.2       5 UNK         0.5055 
     38 O          29.3761   29.5719   -2.8783 O.2       5 UNK        -0.5220 
     39 N          27.4126   29.1716   -1.8108 N.am      6 UNK        -0.4450 
     40 CA         26.7098   30.4392   -2.0472 C.3       6 UNK         0.0367 
     41 CB         26.4656   30.6706   -3.5539 C.3       6 UNK        -0.1929 
     42 C          27.3655   31.6522   -1.3517 C.2       6 UNK         0.5070 
     43 O          27.1489   32.7876   -1.7792 O.2       6 UNK        -0.5237 
     44 N          28.1394   31.4001   -0.2894 N.am      7 UNK        -0.4739 
     45 CA         28.8135   32.3985    0.5332 C.3       7 UNK         0.0276 
     46 CB         30.3187   32.3951    0.1907 C.3       7 UNK        -0.1927 
     47 C          28.4889   32.0965    2.0050 C.2       7 UNK         0.5013 
     48 O          27.3092   32.0403    2.3584 O.2       7 UNK        -0.5193 
     49 N          29.5181   31.9047    2.8346 N.am      8 UNK        -0.4253 
     50 CA         29.4259   31.4919    4.2294 C.3       8 UNK         0.0242 
     51 CB         29.5067   32.7253    5.1447 C.3       8 UNK        -0.2000 
     52 C          30.5889   30.5347    4.4970 C.2       8 UNK         0.4948 
     53 O          31.6596   30.7004    3.9046 O.2       8 UNK        -0.5275 
     54 N          30.3888   29.5760    5.4095 N.am      9 UNK        -0.4246 
     55 CA         31.3704   28.5512    5.7839 C.3       9 UNK         0.0261 
     56 CB         30.6294   27.3385    6.3771 C.3       9 UNK        -0.1959 
     57 C          32.4775   29.0908    6.7150 C.2       9 UNK         0.5033 
     58 O          32.7717   28.4871    7.7487 O.2       9 UNK        -0.5390 
     59 N          33.0832   30.2200    6.3250 N.am      10 UNK        -0.4215 
     60 CA         34.1177   30.9505    7.0656 C.3       10 UNK         0.0240 
     61 CB         34.3870   32.2878    6.3566 C.3       10 UNK        -0.1982 
     62 C          35.4291   30.1682    7.2607 C.2       10 UNK         0.4970 
     63 O          36.1873   30.4857    8.1777 O.2       10 UNK        -0.4916 
     64 N          35.6649   29.1622    6.4100 N.am      11 UNK        -0.4279 
     65 CA         36.7707   28.2041    6.5195 C.3       11 UNK         0.1003 
     66 C          36.6388   27.1852    7.6929 C.2       11 UNK         0.5709 
     67 N          35.4920   27.0698    8.3560 N.am      11 UNK        -0.7358 
     68 O          37.6042   26.4970    8.0156 O.2       11 UNK        -0.4999 
     69 C69        37.0555   27.5219    5.1541 C.3       12 UNK        -0.0954 
     70 S70        35.7496   26.3779    4.5829 S.3       12 UNK        -0.2268 
     71 C71        34.7741   27.4275    3.4594 C.3       12 UNK         0.0203 
     72 H72        28.5871   23.9792   -3.2175 H         1 UNK         0.0888 
     73 H73        27.1003   23.0462   -3.0207 H         1 UNK         0.0888 
     74 H74        28.6693   22.2666   -2.7979 H         1 UNK         0.0888 
     75 H75        29.2276   22.0009   -0.6412 H         1 UNK         0.3017 
     76 H76        29.1612   24.1038    1.2160 H         1 UNK         0.0873 
     77 H77        29.5210   21.1346    1.9045 H         1 UNK         0.0745 
     78 H78        30.7484   22.0257    1.0737 H         1 UNK         0.0745 
     79 H79        29.7029   24.8318    3.2001 H         1 UNK         0.0705 
     80 H80        30.7673   24.6849    4.5436 H         1 UNK         0.0705 
     81 H81        32.7059   25.9716    4.4733 H         1 UNK         0.1334 
     82 H82        34.5364   27.0881    0.7631 H         1 UNK         0.1417 
     83 H83        31.1653   24.4725    0.7630 H         1 UNK         0.1562 
     84 H84        33.4762   24.8098   -1.1790 H         1 UNK         0.0748 
     85 H85        33.4677   26.5499   -1.3293 H         1 UNK         0.0748 
     86 H86        31.1574   27.8111   -2.6539 H         1 UNK         0.0940 
     87 H87        31.2035   27.8918   -0.9103 H         1 UNK         0.0940 
     88 H88        28.7960   26.7613   -2.4201 H         1 UNK         0.0703 
     89 H89        28.1042   26.2052   -0.4209 H         1 UNK         0.3081 
     90 H90        28.5142   26.5047    2.4324 H         1 UNK         0.0719 
     91 H91        26.9195   29.1124    2.5164 H         1 UNK         0.0809 
     92 H92        26.9580   27.9067    3.8050 H         1 UNK         0.0809 
     93 H93        28.4206   28.7674    3.3635 H         1 UNK         0.0809 
     94 H94        26.5822   25.5484    1.9356 H         1 UNK         0.2990 
     95 H95        23.6847   26.1839    1.1477 H         1 UNK         0.0690 
     96 H96        23.1982   25.3299   -1.1722 H         1 UNK         0.0788 
     97 H97        24.8062   25.8371   -1.6887 H         1 UNK         0.0788 
     98 H98        23.6197   27.0332   -1.1799 H         1 UNK         0.0788 
     99 H99        25.7460   24.2489    0.1756 H         1 UNK         0.2993 
    100 H100       25.0884   22.0777    2.8507 H         1 UNK         0.0949 
    101 H101       23.2844   21.2073    1.3498 H         1 UNK         0.0767 
    102 H102       24.3265   21.4199   -0.0503 H         1 UNK         0.0767 
    103 H103       24.7464   20.2477    1.2006 H         1 UNK         0.0767 
    104 H104       26.7167   21.7536    0.5236 H         1 UNK         0.3013 
    105 H105       26.9121   28.5305   -1.2005 H         1 UNK         0.3121 
    106 H106       25.7334   30.3243   -1.5740 H         1 UNK         0.0774 
    107 H107       27.3929   30.8782   -4.0884 H         1 UNK         0.0815 
    108 H108       25.8026   31.5212   -3.7160 H         1 UNK         0.0815 
    109 H109       25.9958   29.8036   -4.0179 H         1 UNK         0.0815 
    110 H110       28.2669   30.4388    0.0117 H         1 UNK         0.2987 
    111 H111       28.4150   33.3946    0.3291 H         1 UNK         0.0949 
    112 H112       30.7778   31.4238    0.3826 H         1 UNK         0.0806 
    113 H113       30.4768   32.6268   -0.8628 H         1 UNK         0.0806 
    114 H114       30.8610   33.1474    0.7650 H         1 UNK         0.0806 
    115 H115       30.4596   31.8901    2.4620 H         1 UNK         0.3010 
    116 H116       28.4847   30.9664    4.4048 H         1 UNK         0.0829 
    117 H117       28.6866   33.4164    4.9491 H         1 UNK         0.0813 
    118 H118       29.4459   32.4391    6.1954 H         1 UNK         0.0813 
    119 H119       30.4423   33.2694    5.0070 H         1 UNK         0.0813 
    120 H120       29.5044   29.5447    5.8970 H         1 UNK         0.3038 
    121 H121       31.8675   28.2165    4.8722 H         1 UNK         0.0769 
    122 H122       30.1087   27.5965    7.3000 H         1 UNK         0.0811 
    123 H123       31.3233   26.5298    6.6106 H         1 UNK         0.0811 
    124 H124       29.8957   26.9398    5.6762 H         1 UNK         0.0811 
    125 H125       32.7732   30.6213    5.4422 H         1 UNK         0.3204 
    126 H126       33.7203   31.1629    8.0602 H         1 UNK         0.0748 
    127 H127       35.1311   32.8751    6.8968 H         1 UNK         0.0771 
    128 H128       34.7614   32.1385    5.3429 H         1 UNK         0.0771 
    129 H129       33.4823   32.8932    6.2942 H         1 UNK         0.0771 
    130 H130       34.9793   28.9666    5.6992 H         1 UNK         0.2980 
    131 H131       37.6604   28.7905    6.7568 H         1 UNK         0.0545 
    132 H132       35.4298   26.4098    9.1144 H         1 UNK         0.3459 
    133 H133       34.6813   27.6216    8.1029 H         1 UNK         0.3459 
    134 H134       37.2323   28.2790    4.3886 H         1 UNK         0.0616 
    135 H135       37.9851   26.9534    5.2151 H         1 UNK         0.0616 
    136 H136       34.2717   28.2105    4.0270 H         1 UNK         0.0634 
    137 H137       35.4497   27.9287    2.7644 H         1 UNK         0.0634 
@<TRIPOS>BOND
     1    1    2 1    
     2    1   72 1    
     3    1   73 1    
     4    1   74 1    
     5    2    3 2    
     6    2    4 am   BACKBONE|DICT|INTERRES
     7    4    5 1    
     8    4   75 1    
     9    5    6 1    
    10    5   35 1    
    11    5   76 1    
    12    6    7 1    
    13    6   77 1    
    14    6   78 1    
    15    7    8 1    
    16    8    9 1    
    17    8   79 1    
    18    8   80 1    
    19    9   10 ar   
    20    9   14 ar   
    21   10   11 ar   
    22   10   81 1    
    23   11   12 ar   
    24   11   71 1    
    25   12   13 ar   
    26   12   82 1    
    27   13   14 ar   
    28   13   15 1    
    29   14   83 1    
    30   15   16 1    
    31   15   84 1    
    32   15   85 1    
    33   16   17 1    
    34   17   18 1    
    35   17   86 1    
    36   17   87 1    
    37   18   19 1    
    38   18   37 1    
    39   18   88 1    
    40   19   20 am   BACKBONE|DICT|INTERRES
    41   19   89 1    
    42   20   21 2    
    43   20   22 1    
    44   22   23 1    
    45   22   24 1    
    46   22   90 1    
    47   23   91 1    
    48   23   92 1    
    49   23   93 1    
    50   24   25 am   BACKBONE|DICT|INTERRES
    51   24   94 1    
    52   25   26 2    
    53   25   27 1    
    54   27   28 1    
    55   27   29 1    
    56   27   95 1    
    57   28   96 1    
    58   28   97 1    
    59   28   98 1    
    60   29   30 am   BACKBONE|DICT|INTERRES
    61   29   99 1    
    62   30   31 2    
    63   30   32 1    
    64   32   33 1    
    65   32   34 1    
    66   32  100 1    
    67   33  101 1    
    68   33  102 1    
    69   33  103 1    
    70   34   35 am   BACKBONE|DICT|INTERRES
    71   34  104 1    
    72   35   36 2    
    73   37   38 2    
    74   37   39 am   BACKBONE|DICT|INTERRES
    75   39   40 1    
    76   39  105 1    
    77   40   41 1    
    78   40   42 1    
    79   40  106 1    
    80   41  107 1    
    81   41  108 1    
    82   41  109 1    
    83   42   43 2    
    84   42   44 am   BACKBONE|DICT|INTERRES
    85   44   45 1    
    86   44  110 1    
    87   45   46 1    
    88   45   47 1    
    89   45  111 1    
    90   46  112 1    
    91   46  113 1    
    92   46  114 1    
    93   47   48 2    
    94   47   49 am   BACKBONE|DICT|INTERRES
    95   49   50 1    
    96   49  115 1    
    97   50   51 1    
    98   50   52 1    
    99   50  116 1    
   100   51  117 1    
   101   51  118 1    
   102   51  119 1    
   103   52   53 2    
   104   52   54 am   BACKBONE|DICT|INTERRES
   105   54   55 1    
   106   54  120 1    
   107   55   56 1    
   108   55   57 1    
   109   55  121 1    
   110   56  122 1    
   111   56  123 1    
   112   56  124 1    
   113   57   58 2    
   114   57   59 am   BACKBONE|DICT|INTERRES
   115   59   60 1    
   116   59  125 1    
   117   60   61 1    
   118   60   62 1    
   119   60  126 1    
   120   61  127 1    
   121   61  128 1    
   122   61  129 1    
   123   62   63 2    
   124   62   64 am   BACKBONE|DICT|INTERRES
   125   64   65 1    
   126   64  130 1    
   127   65   66 1    
   128   65   69 1    
   129   65  131 1    
   130   66   67 am   BACKBONE|DICT|INTERRES
   131   66   68 2    
   132   67  132 1    
   133   67  133 1    
   134   69   70 1    
   135   69  134 1    
   136   69  135 1    
   137   70   71 1    
   138   71  136 1    
   139   71  137 1    
@<TRIPOS>SUBSTRUCTURE
     1 UNK         1 GROUP             0       ****    0 ROOT    
