@<TRIPOS>MOLECULE
3R136
137   139    1
SMALL
USER_CHARGES


@<TRIPOS>ATOM
      1 CA         25.5223   18.8519    0.7094 C.3       0 UNK        -0.1979 
      2 C          25.9045   19.6952   -0.4983 C.2       0 UNK         0.4864 
      3 O          25.2346   19.6252   -1.5303 O.2       0 UNK        -0.5359 
      4 N          26.9804   20.4830   -0.3807 N.am      1 UNK        -0.4318 
      5 CA         27.4514   21.4219   -1.4024 C.3       1 UNK         0.0824 
      6 C6         28.9309   21.8281   -1.1676 C.3       12 UNK        -0.0944 
      7 S7         29.2810   22.4904    0.4984 S.3       12 UNK        -0.2672 
      8 C8         31.0824   22.7391    0.3842 C.3       12 UNK         0.0333 
      9 C9         31.6608   23.4800    1.5867 C.ar      12 UNK        -0.0807 
     10 C10        32.5007   24.5816    1.3909 C.ar      12 UNK        -0.0894 
     11 C11        33.0752   25.2464    2.4790 C.ar      12 UNK        -0.0804 
     12 C12        32.7963   24.8076    3.7769 C.ar      12 UNK        -0.0824 
     13 C13        31.9349   23.7277    3.9895 C.ar      12 UNK        -0.0762 
     14 C14        31.3885   23.0556    2.8913 C.ar      12 UNK        -0.0782 
     15 C15        31.5909   23.2795    5.4020 C.3       12 UNK         0.0230 
     16 S16        29.8413   23.6014    5.7933 S.3       12 UNK        -0.2608 
     17 C17        29.8408   25.3755    6.2375 C.3       12 UNK        -0.0989 
     18 CA         29.7382   26.3634    5.0423 C.3       5 UNK         0.0716 
     19 N          28.8011   25.9027    4.0086 N.am      5 UNK        -0.4135 
     20 C          28.5467   26.5049    2.8395 C.2       4 UNK         0.5031 
     21 O          28.9457   27.6342    2.5493 O.2       4 UNK        -0.5229 
     22 CA         27.6252   25.7319    1.8798 C.3       4 UNK         0.0329 
     23 CB         26.1770   25.7353    2.3993 C.3       4 UNK        -0.2001 
     24 N          27.6239   26.2476    0.5091 N.am      4 UNK        -0.4303 
     25 C          28.6747   26.3161   -0.3192 C.2       3 UNK         0.5044 
     26 O          29.8152   25.9530   -0.0353 O.2       3 UNK        -0.5152 
     27 CA         28.3649   26.8181   -1.7398 C.3       3 UNK         0.0319 
     28 CB         29.6359   27.1192   -2.5562 C.3       3 UNK        -0.2001 
     29 N          27.5733   25.8095   -2.4432 N.am      3 UNK        -0.4354 
     30 C          26.2423   25.6816   -2.3576 C.2       2 UNK         0.4964 
     31 O          25.5146   26.4763   -1.7611 O.2       2 UNK        -0.5047 
     32 CA         25.6338   24.4258   -3.0029 C.3       2 UNK         0.0288 
     33 CB         25.4840   24.6073   -4.5225 C.3       2 UNK        -0.2113 
     34 N          26.4209   23.2194   -2.7220 N.am      2 UNK        -0.4145 
     35 C          26.5193   22.6494   -1.5109 C.2       1 UNK         0.5006 
     36 O          25.9229   23.0621   -0.5118 O.2       1 UNK        -0.5103 
     37 C          29.4907   27.7979    5.5684 C.2       5 UNK         0.5055 
     38 O          30.4189   28.4030    6.1042 O.2       5 UNK        -0.5220 
     39 N          28.2590   28.3066    5.4279 N.am      6 UNK        -0.4450 
     40 CA         27.8528   29.6600    5.8133 C.3       6 UNK         0.0367 
     41 CB         26.7127   29.5524    6.8427 C.3       6 UNK        -0.1929 
     42 C          27.4256   30.5192    4.6066 C.2       6 UNK         0.5070 
     43 O          26.9671   31.6428    4.8169 O.2       6 UNK        -0.5237 
     44 N          27.5519   30.0054    3.3723 N.am      7 UNK        -0.4739 
     45 CA         27.1335   30.7051    2.1502 C.3       7 UNK         0.0276 
     46 CB         26.8792   29.6838    1.0295 C.3       7 UNK        -0.1927 
     47 C          28.1431   31.7661    1.6805 C.2       7 UNK         0.5013 
     48 O          27.7574   32.6665    0.9332 O.2       7 UNK        -0.5193 
     49 N          29.4032   31.6483    2.1130 N.am      8 UNK        -0.4253 
     50 CA         30.4839   32.5847    1.8273 C.3       8 UNK         0.0242 
     51 CB         31.3285   32.0553    0.6551 C.3       8 UNK        -0.2000 
     52 C          31.3381   32.7288    3.0873 C.2       8 UNK         0.4948 
     53 O          31.5675   31.7341    3.7790 O.2       8 UNK        -0.5275 
     54 N          31.8341   33.9483    3.3390 N.am      9 UNK        -0.4246 
     55 CA         32.6893   34.2827    4.4853 C.3       9 UNK         0.0261 
     56 CB         32.9102   35.8032    4.5343 C.3       9 UNK        -0.1959 
     57 C          34.0382   33.5419    4.4875 C.2       9 UNK         0.5033 
     58 O          34.5738   33.2648    5.5614 O.2       9 UNK        -0.5390 
     59 N          34.5375   33.1937    3.2924 N.am      10 UNK        -0.4215 
     60 CA         35.7448   32.3921    3.0740 C.3       10 UNK         0.0240 
     61 CB         36.0395   32.3276    1.5663 C.3       10 UNK        -0.1982 
     62 C          35.6707   30.9717    3.6663 C.2       10 UNK         0.4970 
     63 O          36.7184   30.4047    3.9791 O.2       10 UNK        -0.4916 
     64 N          34.4542   30.4321    3.8224 N.am      11 UNK        -0.4279 
     65 CA         34.1955   29.1517    4.4942 C.3       11 UNK         0.1003 
     66 C          34.1184   29.2597    6.0460 C.2       11 UNK         0.5709 
     67 N          34.1969   30.4419    6.6489 N.am      11 UNK        -0.7358 
     68 O          34.0212   28.2395    6.7240 O.2       11 UNK        -0.4999 
     69 C69        32.9525   28.4363    3.9048 C.3       12 UNK        -0.0954 
     70 S70        33.1496   28.0130    2.1419 S.3       12 UNK        -0.2268 
     71 C71        34.0214   26.4161    2.2429 C.3       12 UNK         0.0203 
     72 H72        26.2058   19.0036    1.5448 H         1 UNK         0.0888 
     73 H73        24.5173   19.1090    1.0431 H         1 UNK         0.0888 
     74 H74        25.5355   17.7941    0.4484 H         1 UNK         0.0888 
     75 H75        27.4728   20.5334    0.5000 H         1 UNK         0.3017 
     76 H76        27.4078   20.9004   -2.3614 H         1 UNK         0.0873 
     77 H77        29.5684   20.9554   -1.3195 H         1 UNK         0.0745 
     78 H78        29.2526   22.5599   -1.9112 H         1 UNK         0.0745 
     79 H79        31.2965   23.2876   -0.5346 H         1 UNK         0.0705 
     80 H80        31.5741   21.7699    0.2930 H         1 UNK         0.0705 
     81 H81        32.7136   24.9223    0.3868 H         1 UNK         0.1334 
     82 H82        33.2417   25.3119    4.6231 H         1 UNK         0.1417 
     83 H83        30.7354   22.2089    3.0544 H         1 UNK         0.1562 
     84 H84        32.2320   23.7620    6.1413 H         1 UNK         0.0748 
     85 H85        31.7782   22.2082    5.4883 H         1 UNK         0.0748 
     86 H86        30.7323   25.5932    6.8294 H         1 UNK         0.0940 
     87 H87        28.9969   25.5197    6.9156 H         1 UNK         0.0940 
     88 H88        30.7096   26.3922    4.5507 H         1 UNK         0.0703 
     89 H89        28.4242   24.9789    4.1670 H         1 UNK         0.3081 
     90 H90        27.9790   24.7012    1.8393 H         1 UNK         0.0719 
     91 H91        26.1076   25.2920    3.3933 H         1 UNK         0.0809 
     92 H92        25.5242   25.1538    1.7471 H         1 UNK         0.0809 
     93 H93        25.7725   26.7460    2.4637 H         1 UNK         0.0809 
     94 H94        26.7273   26.5355    0.1394 H         1 UNK         0.2990 
     95 H95        27.7950   27.7460   -1.6538 H         1 UNK         0.0690 
     96 H96        29.3891   27.5143   -3.5417 H         1 UNK         0.0788 
     97 H97        30.2505   26.2289   -2.6957 H         1 UNK         0.0788 
     98 H98        30.2523   27.8652   -2.0525 H         1 UNK         0.0788 
     99 H99        28.0927   25.0908   -2.9250 H         1 UNK         0.2993 
    100 H100       24.6373   24.2871   -2.5769 H         1 UNK         0.0949 
    101 H101       24.8889   25.4927   -4.7515 H         1 UNK         0.0767 
    102 H102       26.4492   24.7269   -5.0164 H         1 UNK         0.0767 
    103 H103       24.9784   23.7540   -4.9752 H         1 UNK         0.0767 
    104 H104       26.9245   22.8142   -3.4982 H         1 UNK         0.3013 
    105 H105       27.5561   27.7367    4.9797 H         1 UNK         0.3121 
    106 H106       28.6843   30.1881    6.2845 H         1 UNK         0.0774 
    107 H107       26.4099   30.5375    7.2004 H         1 UNK         0.0815 
    108 H108       25.8295   29.0735    6.4184 H         1 UNK         0.0815 
    109 H109       27.0209   28.9761    7.7151 H         1 UNK         0.0815 
    110 H110       28.0154   29.1086    3.2397 H         1 UNK         0.2987 
    111 H111       26.1915   31.2206    2.3516 H         1 UNK         0.0949 
    112 H112       26.1604   28.9245    1.3358 H         1 UNK         0.0806 
    113 H113       26.4749   30.1724    0.1420 H         1 UNK         0.0806 
    114 H114       27.7987   29.1811    0.7293 H         1 UNK         0.0806 
    115 H115       29.6356   30.9082    2.7632 H         1 UNK         0.3010 
    116 H116       30.0732   33.5630    1.5675 H         1 UNK         0.0829 
    117 H117       30.7265   31.9452   -0.2471 H         1 UNK         0.0813 
    118 H118       32.1454   32.7379    0.4181 H         1 UNK         0.0813 
    119 H119       31.7685   31.0829    0.8829 H         1 UNK         0.0813 
    120 H120       31.6000   34.7079    2.7149 H         1 UNK         0.3038 
    121 H121       32.1564   33.9852    5.3912 H         1 UNK         0.0769 
    122 H122       33.4171   36.1684    3.6402 H         1 UNK         0.0811 
    123 H123       33.5243   36.0801    5.3926 H         1 UNK         0.0811 
    124 H124       31.9658   36.3394    4.6292 H         1 UNK         0.0811 
    125 H125       34.0252   33.4740    2.4692 H         1 UNK         0.3204 
    126 H126       36.5737   32.9057    3.5657 H         1 UNK         0.0748 
    127 H127       36.9511   31.7610    1.3706 H         1 UNK         0.0771 
    128 H128       36.1837   33.3230    1.1455 H         1 UNK         0.0771 
    129 H129       35.2309   31.8426    1.0173 H         1 UNK         0.0771 
    130 H130       33.6310   30.9688    3.5794 H         1 UNK         0.2980 
    131 H131       35.0498   28.4991    4.3077 H         1 UNK         0.0545 
    132 H132       34.3068   31.2994    6.1208 H         1 UNK         0.3459 
    133 H133       34.1550   30.4785    7.6545 H         1 UNK         0.3459 
    134 H134       32.0700   29.0699    4.0027 H         1 UNK         0.0616 
    135 H135       32.7295   27.5277    4.4605 H         1 UNK         0.0616 
    136 H136       34.7806   26.4558    3.0250 H         1 UNK         0.0634 
    137 H137       34.5633   26.2622    1.3086 H         1 UNK         0.0634 
@<TRIPOS>BOND
     1    1    2 1    
     2    1   72 1    
     3    1   73 1    
     4    1   74 1    
     5    2    3 2    
     6    2    4 am   BACKBONE|DICT|INTERRES
     7    4    5 1    
     8    4   75 1    
     9    5    6 1    
    10    5   35 1    
    11    5   76 1    
    12    6    7 1    
    13    6   77 1    
    14    6   78 1    
    15    7    8 1    
    16    8    9 1    
    17    8   79 1    
    18    8   80 1    
    19    9   10 ar   
    20    9   14 ar   
    21   10   11 ar   
    22   10   81 1    
    23   11   12 ar   
    24   11   71 1    
    25   12   13 ar   
    26   12   82 1    
    27   13   14 ar   
    28   13   15 1    
    29   14   83 1    
    30   15   16 1    
    31   15   84 1    
    32   15   85 1    
    33   16   17 1    
    34   17   18 1    
    35   17   86 1    
    36   17   87 1    
    37   18   19 1    
    38   18   37 1    
    39   18   88 1    
    40   19   20 am   BACKBONE|DICT|INTERRES
    41   19   89 1    
    42   20   21 2    
    43   20   22 1    
    44   22   23 1    
    45   22   24 1    
    46   22   90 1    
    47   23   91 1    
    48   23   92 1    
    49   23   93 1    
    50   24   25 am   BACKBONE|DICT|INTERRES
    51   24   94 1    
    52   25   26 2    
    53   25   27 1    
    54   27   28 1    
    55   27   29 1    
    56   27   95 1    
    57   28   96 1    
    58   28   97 1    
    59   28   98 1    
    60   29   30 am   BACKBONE|DICT|INTERRES
    61   29   99 1    
    62   30   31 2    
    63   30   32 1    
    64   32   33 1    
    65   32   34 1    
    66   32  100 1    
    67   33  101 1    
    68   33  102 1    
    69   33  103 1    
    70   34   35 am   BACKBONE|DICT|INTERRES
    71   34  104 1    
    72   35   36 2    
    73   37   38 2    
    74   37   39 am   BACKBONE|DICT|INTERRES
    75   39   40 1    
    76   39  105 1    
    77   40   41 1    
    78   40   42 1    
    79   40  106 1    
    80   41  107 1    
    81   41  108 1    
    82   41  109 1    
    83   42   43 2    
    84   42   44 am   BACKBONE|DICT|INTERRES
    85   44   45 1    
    86   44  110 1    
    87   45   46 1    
    88   45   47 1    
    89   45  111 1    
    90   46  112 1    
    91   46  113 1    
    92   46  114 1    
    93   47   48 2    
    94   47   49 am   BACKBONE|DICT|INTERRES
    95   49   50 1    
    96   49  115 1    
    97   50   51 1    
    98   50   52 1    
    99   50  116 1    
   100   51  117 1    
   101   51  118 1    
   102   51  119 1    
   103   52   53 2    
   104   52   54 am   BACKBONE|DICT|INTERRES
   105   54   55 1    
   106   54  120 1    
   107   55   56 1    
   108   55   57 1    
   109   55  121 1    
   110   56  122 1    
   111   56  123 1    
   112   56  124 1    
   113   57   58 2    
   114   57   59 am   BACKBONE|DICT|INTERRES
   115   59   60 1    
   116   59  125 1    
   117   60   61 1    
   118   60   62 1    
   119   60  126 1    
   120   61  127 1    
   121   61  128 1    
   122   61  129 1    
   123   62   63 2    
   124   62   64 am   BACKBONE|DICT|INTERRES
   125   64   65 1    
   126   64  130 1    
   127   65   66 1    
   128   65   69 1    
   129   65  131 1    
   130   66   67 am   BACKBONE|DICT|INTERRES
   131   66   68 2    
   132   67  132 1    
   133   67  133 1    
   134   69   70 1    
   135   69  134 1    
   136   69  135 1    
   137   70   71 1    
   138   71  136 1    
   139   71  137 1    
@<TRIPOS>SUBSTRUCTURE
     1 UNK         1 GROUP             0       ****    0 ROOT    
