@<TRIPOS>MOLECULE
3R136
137   139    1
SMALL
USER_CHARGES


@<TRIPOS>ATOM
      1 CA         28.2765   23.4470   -2.5133 C.3       0 UNK        -0.1979 
      2 C          28.2939   23.6005   -1.0012 C.2       0 UNK         0.4864 
      3 O          27.7617   24.5845   -0.4840 O.2       0 UNK        -0.5359 
      4 N          28.8904   22.6340   -0.2878 N.am      1 UNK        -0.4318 
      5 CA         29.1076   22.6423    1.1673 C.3       1 UNK         0.0824 
      6 C6         29.8715   21.3884    1.6622 C.3       12 UNK        -0.0944 
      7 S7         31.4236   21.0772    0.7571 S.3       12 UNK        -0.2672 
      8 C8         32.6493   21.8766    1.8416 C.3       12 UNK         0.0333 
      9 C9         32.5460   23.3948    1.7991 C.ar      12 UNK        -0.0807 
     10 C10        32.2153   24.1201    2.9477 C.ar      12 UNK        -0.0894 
     11 C11        32.1541   25.5171    2.9110 C.ar      12 UNK        -0.0804 
     12 C12        32.4038   26.1881    1.7093 C.ar      12 UNK        -0.0824 
     13 C13        32.7258   25.4716    0.5542 C.ar      12 UNK        -0.0762 
     14 C14        32.8037   24.0778    0.6076 C.ar      12 UNK        -0.0782 
     15 C15        33.0124   26.1902   -0.7532 C.3       12 UNK         0.0230 
     16 S16        31.5767   26.1277   -1.8692 S.3       12 UNK        -0.2608 
     17 C17        30.8192   27.7712   -1.6386 C.3       12 UNK        -0.0989 
     18 CA         29.2907   27.6709   -1.3740 C.3       5 UNK         0.0716 
     19 N          28.9504   27.0906   -0.0676 N.am      5 UNK        -0.4135 
     20 C          29.2188   27.6033    1.1421 C.2       4 UNK         0.5031 
     21 O          29.9027   28.6119    1.3179 O.2       4 UNK        -0.5229 
     22 CA         28.5699   26.9073    2.3586 C.3       4 UNK         0.0329 
     23 CB         28.4602   27.8402    3.5849 C.3       4 UNK        -0.2001 
     24 N          27.2614   26.3132    2.0557 N.am      4 UNK        -0.4303 
     25 C          26.1825   26.9416    1.5591 C.2       3 UNK         0.5044 
     26 O          26.1404   28.1564    1.3669 O.2       3 UNK        -0.5152 
     27 CA         24.9765   26.0833    1.1358 C.3       3 UNK         0.0319 
     28 CB         24.5523   26.4232   -0.3049 C.3       3 UNK        -0.2001 
     29 N          25.2836   24.6540    1.2006 N.am      3 UNK        -0.4354 
     30 C          24.8095   23.7998    2.1175 C.2       2 UNK         0.4964 
     31 O          23.9819   24.1038    2.9769 O.2       2 UNK        -0.5047 
     32 CA         25.3631   22.3616    2.0891 C.3       2 UNK         0.0288 
     33 CB         24.3990   21.4315    1.3344 C.3       2 UNK        -0.2113 
     34 N          26.7013   22.2464    1.4983 N.am      2 UNK        -0.4145 
     35 C          27.8138   22.8156    1.9876 C.2       1 UNK         0.5006 
     36 O          27.8372   23.4963    3.0134 O.2       1 UNK        -0.5103 
     37 C          28.5295   28.9858   -1.6870 C.2       5 UNK         0.5055 
     38 O          28.9389   29.7156   -2.5910 O.2       5 UNK        -0.5220 
     39 N          27.4139   29.2390   -0.9829 N.am      6 UNK        -0.4450 
     40 CA         26.4696   30.3525   -1.1369 C.3       6 UNK         0.0367 
     41 CB         25.6048   30.1209   -2.3942 C.3       6 UNK        -0.1929 
     42 C          27.1199   31.7573   -1.1148 C.2       6 UNK         0.5070 
     43 O          27.0528   32.4663   -2.1187 O.2       6 UNK        -0.5237 
     44 N          27.7398   32.1993   -0.0126 N.am      7 UNK        -0.4739 
     45 CA         27.9655   31.5210    1.2608 C.3       7 UNK         0.0276 
     46 CB         26.7735   31.7367    2.2110 C.3       7 UNK        -0.1927 
     47 C          29.2597   32.0952    1.8443 C.2       7 UNK         0.5013 
     48 O          29.3042   33.2907    2.1423 O.2       7 UNK        -0.5193 
     49 N          30.2915   31.2532    1.9723 N.am      8 UNK        -0.4253 
     50 CA         31.5840   31.6105    2.5610 C.3       8 UNK         0.0242 
     51 CB         32.6364   30.5665    2.1517 C.3       8 UNK        -0.2000 
     52 C          31.5111   31.7204    4.0912 C.2       8 UNK         0.4948 
     53 O          32.1725   32.5852    4.6678 O.2       8 UNK        -0.5275 
     54 N          30.7103   30.8376    4.7090 N.am      9 UNK        -0.4246 
     55 CA         30.4542   30.6663    6.1455 C.3       9 UNK         0.0261 
     56 CB         29.7542   31.9024    6.7449 C.3       9 UNK        -0.1959 
     57 C          31.7017   30.2679    6.9540 C.2       9 UNK         0.5033 
     58 O          31.7429   29.1683    7.5058 O.2       9 UNK        -0.5390 
     59 N          32.7095   31.1456    6.9854 N.am      10 UNK        -0.4215 
     60 CA         33.9968   30.9573    7.6552 C.3       10 UNK         0.0240 
     61 CB         34.5220   32.3310    8.1133 C.3       10 UNK        -0.1982 
     62 C          34.9914   30.2113    6.7451 C.2       10 UNK         0.4970 
     63 O          36.1046   30.6899    6.5210 O.2       10 UNK        -0.4916 
     64 N          34.5629   29.0579    6.2210 N.am      11 UNK        -0.4279 
     65 CA         35.3522   28.1800    5.3440 C.3       11 UNK         0.1003 
     66 C          36.4328   27.3233    6.0683 C.2       11 UNK         0.5709 
     67 N          36.4675   27.2741    7.3951 N.am      11 UNK        -0.7358 
     68 O          37.2683   26.7058    5.4118 O.2       11 UNK        -0.4999 
     69 C69        34.4379   27.3270    4.4263 C.3       12 UNK        -0.0954 
     70 S70        33.2254   26.3083    5.3371 S.3       12 UNK        -0.2268 
     71 C71        31.8273   26.2991    4.1743 C.3       12 UNK         0.0203 
     72 H72        27.2512   23.4715   -2.8808 H         1 UNK         0.0888 
     73 H73        28.8253   24.2671   -2.9752 H         1 UNK         0.0888 
     74 H74        28.7316   22.5102   -2.8337 H         1 UNK         0.0888 
     75 H75        29.3190   21.8585   -0.7737 H         1 UNK         0.3017 
     76 H76        29.7240   23.5190    1.3763 H         1 UNK         0.0873 
     77 H77        30.0941   21.4713    2.7281 H         1 UNK         0.0745 
     78 H78        29.2497   20.4974    1.5545 H         1 UNK         0.0745 
     79 H79        32.5370   21.5003    2.8597 H         1 UNK         0.0705 
     80 H80        33.6484   21.5829    1.5167 H         1 UNK         0.0705 
     81 H81        32.0232   23.6022    3.8776 H         1 UNK         0.1334 
     82 H82        32.3512   27.2673    1.6715 H         1 UNK         0.1417 
     83 H83        33.0573   23.5205   -0.2842 H         1 UNK         0.1562 
     84 H84        33.8567   25.7089   -1.2490 H         1 UNK         0.0748 
     85 H85        33.3219   27.2211   -0.5752 H         1 UNK         0.0748 
     86 H86        31.0286   28.3261   -2.5546 H         1 UNK         0.0940 
     87 H87        31.3162   28.3231   -0.8404 H         1 UNK         0.0940 
     88 H88        28.8873   26.9648   -2.1016 H         1 UNK         0.0703 
     89 H89        28.4173   26.2225   -0.1152 H         1 UNK         0.3081 
     90 H90        29.2279   26.0783    2.6211 H         1 UNK         0.0719 
     91 H91        29.4376   28.2028    3.8974 H         1 UNK         0.0809 
     92 H92        27.8429   28.7143    3.3757 H         1 UNK         0.0809 
     93 H93        28.0243   27.3199    4.4377 H         1 UNK         0.0809 
     94 H94        27.2027   25.3120    2.2022 H         1 UNK         0.2990 
     95 H95        24.1522   26.3336    1.8060 H         1 UNK         0.0690 
     96 H96        23.6973   25.8236   -0.6170 H         1 UNK         0.0788 
     97 H97        25.3616   26.2480   -1.0153 H         1 UNK         0.0788 
     98 H98        24.2598   27.4704   -0.3938 H         1 UNK         0.0788 
     99 H99        25.9881   24.3313    0.5448 H         1 UNK         0.2993 
    100 H100       25.4292   22.0221    3.1253 H         1 UNK         0.0949 
    101 H101       23.3985   21.4713    1.7678 H         1 UNK         0.0767 
    102 H102       24.3100   21.7092    0.2831 H         1 UNK         0.0767 
    103 H103       24.7288   20.3934    1.3823 H         1 UNK         0.0767 
    104 H104       26.7758   21.7171    0.6414 H         1 UNK         0.3013 
    105 H105       27.1728   28.6079   -0.2245 H         1 UNK         0.3121 
    106 H106       25.7970   30.3086   -0.2807 H         1 UNK         0.0774 
    107 H107       26.2041   30.1319   -3.3051 H         1 UNK         0.0815 
    108 H108       24.8441   30.8960   -2.4943 H         1 UNK         0.0815 
    109 H109       25.0858   29.1638   -2.3468 H         1 UNK         0.0815 
    110 H110       28.1628   33.1174   -0.0516 H         1 UNK         0.2987 
    111 H111       28.0985   30.4518    1.1202 H         1 UNK         0.0949 
    112 H112       26.5676   32.7962    2.3680 H         1 UNK         0.0806 
    113 H113       25.8639   31.2723    1.8322 H         1 UNK         0.0806 
    114 H114       26.9732   31.2950    3.1881 H         1 UNK         0.0806 
    115 H115       30.1773   30.2816    1.6765 H         1 UNK         0.3010 
    116 H116       31.8912   32.5823    2.1679 H         1 UNK         0.0829 
    117 H117       33.6152   30.8136    2.5656 H         1 UNK         0.0813 
    118 H118       32.3739   29.5695    2.5061 H         1 UNK         0.0813 
    119 H119       32.7447   30.5169    1.0681 H         1 UNK         0.0813 
    120 H120       30.2352   30.1770    4.1121 H         1 UNK         0.3038 
    121 H121       29.7551   29.8319    6.2241 H         1 UNK         0.0769 
    122 H122       30.3713   32.7991    6.6840 H         1 UNK         0.0811 
    123 H123       29.5176   31.7430    7.7977 H         1 UNK         0.0811 
    124 H124       28.8159   32.1105    6.2307 H         1 UNK         0.0811 
    125 H125       32.6224   31.9553    6.3738 H         1 UNK         0.3204 
    126 H126       33.8519   30.3429    8.5464 H         1 UNK         0.0748 
    127 H127       35.4631   32.2309    8.6557 H         1 UNK         0.0771 
    128 H128       34.6995   32.9972    7.2679 H         1 UNK         0.0771 
    129 H129       33.8153   32.8214    8.7830 H         1 UNK         0.0771 
    130 H130       33.6429   28.7207    6.4779 H         1 UNK         0.2980 
    131 H131       35.9211   28.8321    4.6783 H         1 UNK         0.0545 
    132 H132       37.1767   26.7214    7.8502 H         1 UNK         0.3459 
    133 H133       35.7846   27.7712    7.9431 H         1 UNK         0.3459 
    134 H134       33.8980   27.9948    3.7542 H         1 UNK         0.0616 
    135 H135       35.0268   26.6745    3.7790 H         1 UNK         0.0616 
    136 H136       31.5589   27.3284    3.9357 H         1 UNK         0.0634 
    137 H137       30.9591   25.8558    4.6639 H         1 UNK         0.0634 
@<TRIPOS>BOND
     1    1    2 1    
     2    1   72 1    
     3    1   73 1    
     4    1   74 1    
     5    2    3 2    
     6    2    4 am   BACKBONE|DICT|INTERRES
     7    4    5 1    
     8    4   75 1    
     9    5    6 1    
    10    5   35 1    
    11    5   76 1    
    12    6    7 1    
    13    6   77 1    
    14    6   78 1    
    15    7    8 1    
    16    8    9 1    
    17    8   79 1    
    18    8   80 1    
    19    9   10 ar   
    20    9   14 ar   
    21   10   11 ar   
    22   10   81 1    
    23   11   12 ar   
    24   11   71 1    
    25   12   13 ar   
    26   12   82 1    
    27   13   14 ar   
    28   13   15 1    
    29   14   83 1    
    30   15   16 1    
    31   15   84 1    
    32   15   85 1    
    33   16   17 1    
    34   17   18 1    
    35   17   86 1    
    36   17   87 1    
    37   18   19 1    
    38   18   37 1    
    39   18   88 1    
    40   19   20 am   BACKBONE|DICT|INTERRES
    41   19   89 1    
    42   20   21 2    
    43   20   22 1    
    44   22   23 1    
    45   22   24 1    
    46   22   90 1    
    47   23   91 1    
    48   23   92 1    
    49   23   93 1    
    50   24   25 am   BACKBONE|DICT|INTERRES
    51   24   94 1    
    52   25   26 2    
    53   25   27 1    
    54   27   28 1    
    55   27   29 1    
    56   27   95 1    
    57   28   96 1    
    58   28   97 1    
    59   28   98 1    
    60   29   30 am   BACKBONE|DICT|INTERRES
    61   29   99 1    
    62   30   31 2    
    63   30   32 1    
    64   32   33 1    
    65   32   34 1    
    66   32  100 1    
    67   33  101 1    
    68   33  102 1    
    69   33  103 1    
    70   34   35 am   BACKBONE|DICT|INTERRES
    71   34  104 1    
    72   35   36 2    
    73   37   38 2    
    74   37   39 am   BACKBONE|DICT|INTERRES
    75   39   40 1    
    76   39  105 1    
    77   40   41 1    
    78   40   42 1    
    79   40  106 1    
    80   41  107 1    
    81   41  108 1    
    82   41  109 1    
    83   42   43 2    
    84   42   44 am   BACKBONE|DICT|INTERRES
    85   44   45 1    
    86   44  110 1    
    87   45   46 1    
    88   45   47 1    
    89   45  111 1    
    90   46  112 1    
    91   46  113 1    
    92   46  114 1    
    93   47   48 2    
    94   47   49 am   BACKBONE|DICT|INTERRES
    95   49   50 1    
    96   49  115 1    
    97   50   51 1    
    98   50   52 1    
    99   50  116 1    
   100   51  117 1    
   101   51  118 1    
   102   51  119 1    
   103   52   53 2    
   104   52   54 am   BACKBONE|DICT|INTERRES
   105   54   55 1    
   106   54  120 1    
   107   55   56 1    
   108   55   57 1    
   109   55  121 1    
   110   56  122 1    
   111   56  123 1    
   112   56  124 1    
   113   57   58 2    
   114   57   59 am   BACKBONE|DICT|INTERRES
   115   59   60 1    
   116   59  125 1    
   117   60   61 1    
   118   60   62 1    
   119   60  126 1    
   120   61  127 1    
   121   61  128 1    
   122   61  129 1    
   123   62   63 2    
   124   62   64 am   BACKBONE|DICT|INTERRES
   125   64   65 1    
   126   64  130 1    
   127   65   66 1    
   128   65   69 1    
   129   65  131 1    
   130   66   67 am   BACKBONE|DICT|INTERRES
   131   66   68 2    
   132   67  132 1    
   133   67  133 1    
   134   69   70 1    
   135   69  134 1    
   136   69  135 1    
   137   70   71 1    
   138   71  136 1    
   139   71  137 1    
@<TRIPOS>SUBSTRUCTURE
     1 UNK         1 GROUP             0       ****    0 ROOT    
