@<TRIPOS>MOLECULE
3R136
137   139    1
SMALL
USER_CHARGES


@<TRIPOS>ATOM
      1 CA         29.3239   19.4798    2.0725 C.3       0 UNK        -0.1979 
      2 C          28.3908   20.3677    1.2633 C.2       0 UNK         0.4864 
      3 O          27.1701   20.2395    1.3738 O.2       0 UNK        -0.5359 
      4 N          28.9528   21.2769    0.4555 N.am      1 UNK        -0.4318 
      5 CA         28.2446   22.2348   -0.4014 C.3       1 UNK         0.0824 
      6 C6         29.1258   22.6578   -1.6177 C.3       12 UNK        -0.0944 
      7 S7         30.5460   23.7764   -1.3146 S.3       12 UNK        -0.2672 
      8 C8         31.8602   22.7033   -0.6671 C.3       12 UNK         0.0333 
      9 C9         32.4533   23.3254    0.5887 C.ar      12 UNK        -0.0807 
     10 C10        33.7018   23.9586    0.5521 C.ar      12 UNK        -0.0894 
     11 C11        34.2315   24.5495    1.7051 C.ar      12 UNK        -0.0804 
     12 C12        33.5090   24.4834    2.9000 C.ar      12 UNK        -0.0824 
     13 C13        32.2380   23.9094    2.9340 C.ar      12 UNK        -0.0762 
     14 C14        31.7247   23.3108    1.7824 C.ar      12 UNK        -0.0782 
     15 C15        31.4089   23.9826    4.2063 C.3       12 UNK         0.0230 
     16 S16        30.7705   25.6692    4.4860 S.3       12 UNK        -0.2608 
     17 C17        29.5132   25.8391    3.1719 C.3       12 UNK        -0.0989 
     18 CA         29.6596   27.1411    2.3406 C.3       5 UNK         0.0716 
     19 N          28.9851   27.0327    1.0404 N.am      5 UNK        -0.4135 
     20 C          28.9569   27.9773    0.0882 C.2       4 UNK         0.5031 
     21 O          29.5897   29.0282    0.1478 O.2       4 UNK        -0.5229 
     22 CA         28.0137   27.7541   -1.1044 C.3       4 UNK         0.0329 
     23 CB         28.6996   26.9759   -2.2346 C.3       4 UNK        -0.2001 
     24 N          26.7797   27.0772   -0.7082 N.am      4 UNK        -0.4303 
     25 C          25.7807   27.6676   -0.0394 C.2       3 UNK         0.5044 
     26 O          25.7749   28.8592    0.2713 O.2       3 UNK        -0.5152 
     27 CA         24.6093   26.7642    0.3854 C.3       3 UNK         0.0319 
     28 CB         23.6384   26.5453   -0.7856 C.3       3 UNK        -0.2001 
     29 N          25.0468   25.4672    0.9133 N.am      3 UNK        -0.4354 
     30 C          25.7504   25.3197    2.0445 C.2       2 UNK         0.4964 
     31 O          26.0923   26.2604    2.7615 O.2       2 UNK        -0.5047 
     32 CA         26.1774   23.8920    2.4323 C.3       2 UNK         0.0288 
     33 CB         25.0139   23.1521    3.1115 C.3       2 UNK        -0.2113 
     34 N          26.7245   23.0508    1.3571 N.am      2 UNK        -0.4145 
     35 C          27.6246   23.3940    0.4231 C.2       1 UNK         0.5006 
     36 O          27.9834   24.5546    0.2368 O.2       1 UNK        -0.5103 
     37 C          29.1619   28.3736    3.1271 C.2       5 UNK         0.5055 
     38 O          29.9761   29.1724    3.5936 O.2       5 UNK        -0.5220 
     39 N          27.8319   28.5307    3.2155 N.am      6 UNK        -0.4450 
     40 CA         27.1671   29.6846    3.8222 C.3       6 UNK         0.0367 
     41 CB         25.6530   29.4331    3.8992 C.3       6 UNK        -0.1929 
     42 C          27.4705   31.0009    3.0879 C.2       6 UNK         0.5070 
     43 O          27.8210   31.9833    3.7418 O.2       6 UNK        -0.5237 
     44 N          27.3767   30.9949    1.7491 N.am      7 UNK        -0.4739 
     45 CA         27.6940   32.1452    0.8915 C.3       7 UNK         0.0276 
     46 CB         27.3212   31.8271   -0.5643 C.3       7 UNK        -0.1927 
     47 C          29.1642   32.5936    0.9886 C.2       7 UNK         0.5013 
     48 O          29.4343   33.7946    0.9716 O.2       7 UNK        -0.5193 
     49 N          30.0784   31.6260    1.1353 N.am      8 UNK        -0.4253 
     50 CA         31.5089   31.8287    1.3722 C.3       8 UNK         0.0242 
     51 CB         32.2732   30.5795    0.8975 C.3       8 UNK        -0.2000 
     52 C          31.8556   32.1581    2.8382 C.2       8 UNK         0.4948 
     53 O          33.0434   32.2164    3.1572 O.2       8 UNK        -0.5275 
     54 N          30.8472   32.3438    3.7065 N.am      9 UNK        -0.4246 
     55 CA         30.9502   32.6829    5.1312 C.3       9 UNK         0.0261 
     56 CB         31.4970   34.1154    5.3113 C.3       9 UNK        -0.1959 
     57 C          31.7320   31.6297    5.9392 C.2       9 UNK         0.5033 
     58 O          32.6318   31.9806    6.7047 O.2       9 UNK        -0.5390 
     59 N          31.3715   30.3558    5.7302 N.am      10 UNK        -0.4215 
     60 CA         31.9811   29.1424    6.2852 C.3       10 UNK         0.0240 
     61 CB         32.0332   29.1577    7.8288 C.3       10 UNK        -0.1982 
     62 C          33.3269   28.7732    5.6323 C.2       10 UNK         0.4970 
     63 O          34.0516   27.9463    6.1889 O.2       10 UNK        -0.4916 
     64 N          33.6082   29.3320    4.4447 N.am      11 UNK        -0.4279 
     65 CA         34.7453   28.9859    3.5777 C.3       11 UNK         0.1003 
     66 C          36.1262   29.4265    4.1520 C.2       11 UNK         0.5709 
     67 N          37.2250   28.9302    3.5996 N.am      11 UNK        -0.7358 
     68 O          36.2206   30.2479    5.0626 O.2       11 UNK        -0.4999 
     69 C69        34.6718   27.4893    3.1530 C.3       12 UNK        -0.0954 
     70 S70        35.3684   27.0900    1.5160 S.3       12 UNK        -0.2268 
     71 C71        35.5704   25.2788    1.6627 C.3       12 UNK         0.0203 
     72 H72        29.1274   19.6022    3.1373 H         1 UNK         0.0888 
     73 H73        29.1624   18.4335    1.8142 H         1 UNK         0.0888 
     74 H74        30.3725   19.7161    1.8921 H         1 UNK         0.0888 
     75 H75        29.9583   21.3274    0.4065 H         1 UNK         0.3017 
     76 H76        27.3915   21.7027   -0.8289 H         1 UNK         0.0873 
     77 H77        28.4893   23.1623   -2.3467 H         1 UNK         0.0745 
     78 H78        29.4938   21.7696   -2.1338 H         1 UNK         0.0745 
     79 H79        32.6243   22.5791   -1.4359 H         1 UNK         0.0705 
     80 H80        31.4852   21.7043   -0.4490 H         1 UNK         0.0705 
     81 H81        34.2541   24.0054   -0.3766 H         1 UNK         0.1334 
     82 H82        33.9070   24.9286    3.8005 H         1 UNK         0.1417 
     83 H83        30.7398   22.8692    1.8072 H         1 UNK         0.1562 
     84 H84        32.0269   23.6931    5.0575 H         1 UNK         0.0748 
     85 H85        30.5772   23.2766    4.1771 H         1 UNK         0.0748 
     86 H86        28.5286   25.7713    3.6349 H         1 UNK         0.0940 
     87 H87        29.5830   24.9761    2.5104 H         1 UNK         0.0940 
     88 H88        30.7190   27.2934    2.1225 H         1 UNK         0.0703 
     89 H89        28.4926   26.1616    0.8502 H         1 UNK         0.3081 
     90 H90        27.7508   28.7368   -1.5000 H         1 UNK         0.0719 
     91 H91        28.0916   26.9771   -3.1392 H         1 UNK         0.0809 
     92 H92        29.6640   27.4176   -2.4893 H         1 UNK         0.0809 
     93 H93        28.8753   25.9394   -1.9558 H         1 UNK         0.0809 
     94 H94        26.7536   26.0738   -0.8340 H         1 UNK         0.2990 
     95 H95        24.0687   27.2824    1.1806 H         1 UNK         0.0690 
     96 H96        23.2881   27.4986   -1.1841 H         1 UNK         0.0788 
     97 H97        22.7579   25.9848   -0.4710 H         1 UNK         0.0788 
     98 H98        24.1077   26.0016   -1.6065 H         1 UNK         0.0788 
     99 H99        24.8134   24.6439    0.3774 H         1 UNK         0.2993 
    100 H100       26.9747   23.9946    3.1700 H         1 UNK         0.0949 
    101 H101       24.2019   22.9490    2.4121 H         1 UNK         0.0767 
    102 H102       25.3405   22.1999    3.5304 H         1 UNK         0.0767 
    103 H103       24.6001   23.7399    3.9324 H         1 UNK         0.0767 
    104 H104       26.5398   22.0539    1.4396 H         1 UNK         0.3013 
    105 H105       27.2271   27.7981    2.8512 H         1 UNK         0.3121 
    106 H106       27.5455   29.7816    4.8420 H         1 UNK         0.0774 
    107 H107       25.2146   29.2888    2.9114 H         1 UNK         0.0815 
    108 H108       25.1403   30.2757    4.3650 H         1 UNK         0.0815 
    109 H109       25.4292   28.5475    4.4943 H         1 UNK         0.0815 
    110 H110       27.0437   30.1552    1.2855 H         1 UNK         0.2987 
    111 H111       27.0753   32.9809    1.2259 H         1 UNK         0.0949 
    112 H112       27.9312   31.0193   -0.9675 H         1 UNK         0.0806 
    113 H113       26.2744   31.5360   -0.6541 H         1 UNK         0.0806 
    114 H114       27.4725   32.6979   -1.2035 H         1 UNK         0.0806 
    115 H115       29.7727   30.6579    1.0554 H         1 UNK         0.3010 
    116 H116       31.8407   32.6763    0.7691 H         1 UNK         0.0829 
    117 H117       32.0407   30.3432   -0.1409 H         1 UNK         0.0813 
    118 H118       33.3515   30.7304    0.9555 H         1 UNK         0.0813 
    119 H119       32.0281   29.7043    1.5013 H         1 UNK         0.0813 
    120 H120       29.8988   32.2294    3.3652 H         1 UNK         0.3038 
    121 H121       29.9315   32.6702    5.5219 H         1 UNK         0.0769 
    122 H122       32.5307   34.2002    4.9742 H         1 UNK         0.0811 
    123 H123       31.4720   34.4136    6.3601 H         1 UNK         0.0811 
    124 H124       30.9020   34.8394    4.7547 H         1 UNK         0.0811 
    125 H125       30.6734   30.1676    5.0106 H         1 UNK         0.3204 
    126 H126       31.3013   28.3371    6.0037 H         1 UNK         0.0748 
    127 H127       32.2886   28.1715    8.2182 H         1 UNK         0.0771 
    128 H128       32.7831   29.8540    8.2048 H         1 UNK         0.0771 
    129 H129       31.0697   29.4337    8.2571 H         1 UNK         0.0771 
    130 H130       33.0087   30.0703    4.1036 H         1 UNK         0.2980 
    131 H131       34.6014   29.5978    2.6878 H         1 UNK         0.0545 
    132 H132       38.1273   29.2164    3.9455 H         1 UNK         0.3459 
    133 H133       37.1564   28.2704    2.8392 H         1 UNK         0.3459 
    134 H134       35.1392   26.8596    3.9117 H         1 UNK         0.0616 
    135 H135       33.6247   27.1862    3.1051 H         1 UNK         0.0616 
    136 H136       36.1616   24.9256    0.8166 H         1 UNK         0.0634 
    137 H137       36.1516   25.0464    2.5564 H         1 UNK         0.0634 
@<TRIPOS>BOND
     1    1    2 1    
     2    1   72 1    
     3    1   73 1    
     4    1   74 1    
     5    2    3 2    
     6    2    4 am   BACKBONE|DICT|INTERRES
     7    4    5 1    
     8    4   75 1    
     9    5    6 1    
    10    5   35 1    
    11    5   76 1    
    12    6    7 1    
    13    6   77 1    
    14    6   78 1    
    15    7    8 1    
    16    8    9 1    
    17    8   79 1    
    18    8   80 1    
    19    9   10 ar   
    20    9   14 ar   
    21   10   11 ar   
    22   10   81 1    
    23   11   12 ar   
    24   11   71 1    
    25   12   13 ar   
    26   12   82 1    
    27   13   14 ar   
    28   13   15 1    
    29   14   83 1    
    30   15   16 1    
    31   15   84 1    
    32   15   85 1    
    33   16   17 1    
    34   17   18 1    
    35   17   86 1    
    36   17   87 1    
    37   18   19 1    
    38   18   37 1    
    39   18   88 1    
    40   19   20 am   BACKBONE|DICT|INTERRES
    41   19   89 1    
    42   20   21 2    
    43   20   22 1    
    44   22   23 1    
    45   22   24 1    
    46   22   90 1    
    47   23   91 1    
    48   23   92 1    
    49   23   93 1    
    50   24   25 am   BACKBONE|DICT|INTERRES
    51   24   94 1    
    52   25   26 2    
    53   25   27 1    
    54   27   28 1    
    55   27   29 1    
    56   27   95 1    
    57   28   96 1    
    58   28   97 1    
    59   28   98 1    
    60   29   30 am   BACKBONE|DICT|INTERRES
    61   29   99 1    
    62   30   31 2    
    63   30   32 1    
    64   32   33 1    
    65   32   34 1    
    66   32  100 1    
    67   33  101 1    
    68   33  102 1    
    69   33  103 1    
    70   34   35 am   BACKBONE|DICT|INTERRES
    71   34  104 1    
    72   35   36 2    
    73   37   38 2    
    74   37   39 am   BACKBONE|DICT|INTERRES
    75   39   40 1    
    76   39  105 1    
    77   40   41 1    
    78   40   42 1    
    79   40  106 1    
    80   41  107 1    
    81   41  108 1    
    82   41  109 1    
    83   42   43 2    
    84   42   44 am   BACKBONE|DICT|INTERRES
    85   44   45 1    
    86   44  110 1    
    87   45   46 1    
    88   45   47 1    
    89   45  111 1    
    90   46  112 1    
    91   46  113 1    
    92   46  114 1    
    93   47   48 2    
    94   47   49 am   BACKBONE|DICT|INTERRES
    95   49   50 1    
    96   49  115 1    
    97   50   51 1    
    98   50   52 1    
    99   50  116 1    
   100   51  117 1    
   101   51  118 1    
   102   51  119 1    
   103   52   53 2    
   104   52   54 am   BACKBONE|DICT|INTERRES
   105   54   55 1    
   106   54  120 1    
   107   55   56 1    
   108   55   57 1    
   109   55  121 1    
   110   56  122 1    
   111   56  123 1    
   112   56  124 1    
   113   57   58 2    
   114   57   59 am   BACKBONE|DICT|INTERRES
   115   59   60 1    
   116   59  125 1    
   117   60   61 1    
   118   60   62 1    
   119   60  126 1    
   120   61  127 1    
   121   61  128 1    
   122   61  129 1    
   123   62   63 2    
   124   62   64 am   BACKBONE|DICT|INTERRES
   125   64   65 1    
   126   64  130 1    
   127   65   66 1    
   128   65   69 1    
   129   65  131 1    
   130   66   67 am   BACKBONE|DICT|INTERRES
   131   66   68 2    
   132   67  132 1    
   133   67  133 1    
   134   69   70 1    
   135   69  134 1    
   136   69  135 1    
   137   70   71 1    
   138   71  136 1    
   139   71  137 1    
@<TRIPOS>SUBSTRUCTURE
     1 UNK         1 GROUP             0       ****    0 ROOT    
