@<TRIPOS>MOLECULE
3R136
137   139    1
SMALL
USER_CHARGES


@<TRIPOS>ATOM
      1 CA         28.8775   20.3610   -4.0476 C.3       0 UNK        -0.1979 
      2 C          29.1933   21.6414   -3.2897 C.2       0 UNK         0.4864 
      3 O          29.5752   22.6396   -3.9020 O.2       0 UNK        -0.5359 
      4 N          29.0175   21.6341   -1.9622 N.am      1 UNK        -0.4318 
      5 CA         29.3148   22.7369   -1.0344 C.3       1 UNK         0.0824 
      6 C6         29.5273   22.2090    0.4097 C.3       12 UNK        -0.0944 
      7 S7         30.8647   20.9723    0.5323 S.3       12 UNK        -0.2672 
      8 C8         32.2084   21.9508    1.2942 C.3       12 UNK         0.0333 
      9 C9         31.9789   22.4174    2.7359 C.ar      12 UNK        -0.0807 
     10 C10        32.9061   23.3017    3.2956 C.ar      12 UNK        -0.0894 
     11 C11        32.7484   23.7873    4.5992 C.ar      12 UNK        -0.0804 
     12 C12        31.6551   23.3594    5.3573 C.ar      12 UNK        -0.0824 
     13 C13        30.7184   22.4738    4.8182 C.ar      12 UNK        -0.0762 
     14 C14        30.8912   21.9995    3.5149 C.ar      12 UNK        -0.0782 
     15 C15        29.5139   22.0258    5.6377 C.3       12 UNK         0.0230 
     16 S16        28.4256   23.4089    6.1195 S.3       12 UNK        -0.2608 
     17 C17        28.0938   24.2374    4.5256 C.3       12 UNK        -0.0989 
     18 CA         28.8335   25.5983    4.4210 C.3       5 UNK         0.0716 
     19 N          29.1675   25.9281    3.0306 N.am      5 UNK        -0.4135 
     20 C          30.0166   26.8981    2.6572 C.2       4 UNK         0.5031 
     21 O          30.6362   27.6195    3.4382 O.2       4 UNK        -0.5229 
     22 CA         30.1240   27.1587    1.1513 C.3       4 UNK         0.0329 
     23 CB         31.0095   26.1059    0.4670 C.3       4 UNK        -0.2001 
     24 N          28.8024   27.2076    0.5267 N.am      4 UNK        -0.4303 
     25 C          27.9306   28.2169    0.6743 C.2       3 UNK         0.5044 
     26 O          28.1601   29.2087    1.3703 O.2       3 UNK        -0.5152 
     27 CA         26.5536   28.0864   -0.0143 C.3       3 UNK         0.0319 
     28 CB         26.1675   29.3659   -0.7817 C.3       3 UNK        -0.2001 
     29 N          26.3946   26.8937   -0.8590 N.am      3 UNK        -0.4354 
     30 C          27.0386   26.5893   -1.9956 C.2       2 UNK         0.4964 
     31 O          27.8718   27.3123   -2.5435 O.2       2 UNK        -0.5047 
     32 CA         26.7360   25.1989   -2.5796 C.3       2 UNK         0.0288 
     33 CB         26.5215   25.2623   -4.1019 C.3       2 UNK        -0.2113 
     34 N          27.7944   24.2278   -2.2877 N.am      2 UNK        -0.4145 
     35 C          28.2523   23.8653   -1.0803 C.2       1 UNK         0.5006 
     36 O          27.8635   24.3798   -0.0277 O.2       1 UNK        -0.5103 
     37 C          28.0454   26.7318    5.1176 C.2       5 UNK         0.5055 
     38 O          28.1810   26.9181    6.3273 O.2       5 UNK        -0.5220 
     39 N          27.2645   27.4927    4.3343 N.am      6 UNK        -0.4450 
     40 CA         26.5276   28.6817    4.7746 C.3       6 UNK         0.0367 
     41 CB         25.4247   29.0002    3.7505 C.3       6 UNK        -0.1929 
     42 C          27.4248   29.9155    5.0020 C.2       6 UNK         0.5070 
     43 O          26.9273   30.9222    5.5073 O.2       6 UNK        -0.5237 
     44 N          28.7108   29.8230    4.6292 N.am      7 UNK        -0.4739 
     45 CA         29.7545   30.8411    4.7667 C.3       7 UNK         0.0276 
     46 CB         30.0200   31.1722    6.2516 C.3       7 UNK        -0.1927 
     47 C          29.5040   32.0951    3.9103 C.2       7 UNK         0.5013 
     48 O          29.8582   33.1997    4.3297 O.2       7 UNK        -0.5193 
     49 N          28.9308   31.9180    2.7098 N.am      8 UNK        -0.4253 
     50 CA         28.7061   32.9881    1.7318 C.3       8 UNK         0.0242 
     51 CB         27.6439   32.5276    0.7188 C.3       8 UNK        -0.2000 
     52 C          30.0302   33.3898    1.0537 C.2       8 UNK         0.4948 
     53 O          30.2820   32.9919   -0.0849 O.2       8 UNK        -0.5275 
     54 N          30.8692   34.1223    1.8037 N.am      9 UNK        -0.4246 
     55 CA         32.2798   34.4293    1.5257 C.3       9 UNK         0.0261 
     56 CB         32.4245   35.3432    0.2897 C.3       9 UNK        -0.1959 
     57 C          33.1121   33.1347    1.4333 C.2       9 UNK         0.5033 
     58 O          33.8429   32.9267    0.4622 O.2       9 UNK        -0.5390 
     59 N          32.9379   32.2671    2.4370 N.am      10 UNK        -0.4215 
     60 CA         33.4499   30.9017    2.4857 C.3       10 UNK         0.0240 
     61 CB         32.5013   29.9806    1.6945 C.3       10 UNK        -0.1982 
     62 C          33.6008   30.4542    3.9466 C.2       10 UNK         0.4970 
     63 O          33.3235   31.2334    4.8614 O.2       10 UNK        -0.4916 
     64 N          34.0560   29.2108    4.1254 N.am      11 UNK        -0.4279 
     65 CA         34.3448   28.5644    5.4133 C.3       11 UNK         0.1003 
     66 C          33.1386   28.3845    6.3796 C.2       11 UNK         0.5709 
     67 N          31.9160   28.2092    5.8975 N.am      11 UNK        -0.7358 
     68 O          33.3223   28.4055    7.5943 O.2       11 UNK        -0.4999 
     69 C69        35.1108   27.2317    5.1987 C.3       12 UNK        -0.0954 
     70 S70        34.2495   26.0848    4.0654 S.3       12 UNK        -0.2268 
     71 C71        33.7559   24.7566    5.2100 C.3       12 UNK         0.0203 
     72 H72        28.0946   20.5435   -4.7831 H         1 UNK         0.0888 
     73 H73        29.7645   20.0089   -4.5734 H         1 UNK         0.0888 
     74 H74        28.5401   19.5663   -3.3824 H         1 UNK         0.0888 
     75 H75        28.6870   20.7878   -1.5204 H         1 UNK         0.3017 
     76 H76        30.2517   23.1980   -1.3544 H         1 UNK         0.0873 
     77 H77        29.7456   23.0275    1.0961 H         1 UNK         0.0745 
     78 H78        28.6103   21.7489    0.7826 H         1 UNK         0.0745 
     79 H79        33.1174   21.3483    1.2705 H         1 UNK         0.0705 
     80 H80        32.3988   22.8198    0.6621 H         1 UNK         0.0705 
     81 H81        33.7553   23.6211    2.7069 H         1 UNK         0.1334 
     82 H82        31.5208   23.7242    6.3667 H         1 UNK         0.1417 
     83 H83        30.1652   21.3074    3.1141 H         1 UNK         0.1562 
     84 H84        29.8644   21.5222    6.5396 H         1 UNK         0.0748 
     85 H85        28.9209   21.2918    5.0897 H         1 UNK         0.0748 
     86 H86        27.0152   24.3542    4.4009 H         1 UNK         0.0940 
     87 H87        28.4025   23.5696    3.7201 H         1 UNK         0.0940 
     88 H88        29.7894   25.5152    4.9433 H         1 UNK         0.0703 
     89 H89        28.6971   25.3980    2.3104 H         1 UNK         0.3081 
     90 H90        30.5913   28.1321    1.0056 H         1 UNK         0.0719 
     91 H91        32.0134   26.1092    0.8947 H         1 UNK         0.0809 
     92 H92        31.1105   26.3052   -0.6000 H         1 UNK         0.0809 
     93 H93        30.6135   25.0994    0.5856 H         1 UNK         0.0809 
     94 H94        28.5111   26.3992   -0.0091 H         1 UNK         0.2990 
     95 H95        25.8302   27.9625    0.7922 H         1 UNK         0.0690 
     96 H96        25.2157   29.2489   -1.2996 H         1 UNK         0.0788 
     97 H97        26.9217   29.6402   -1.5201 H         1 UNK         0.0788 
     98 H98        26.0570   30.2073   -0.0983 H         1 UNK         0.0788 
     99 H99        25.7746   26.1900   -0.4800 H         1 UNK         0.2993 
    100 H100       25.8140   24.8249   -2.1294 H         1 UNK         0.0949 
    101 H101       26.2142   24.2948   -4.4998 H         1 UNK         0.0767 
    102 H102       25.7410   25.9804   -4.3572 H         1 UNK         0.0767 
    103 H103       27.4291   25.5659   -4.6257 H         1 UNK         0.0767 
    104 H104       28.2370   23.7840   -3.0874 H         1 UNK         0.3013 
    105 H105       27.2255   27.2797    3.3496 H         1 UNK         0.3121 
    106 H106       26.0490   28.4502    5.7286 H         1 UNK         0.0774 
    107 H107       25.8399   29.3380    2.8013 H         1 UNK         0.0815 
    108 H108       24.7770   29.7978    4.1165 H         1 UNK         0.0815 
    109 H109       24.7908   28.1344    3.5584 H         1 UNK         0.0815 
    110 H110       29.0173   28.9567    4.2036 H         1 UNK         0.2987 
    111 H111       30.6611   30.3844    4.3716 H         1 UNK         0.0949 
    112 H112       29.1978   31.7329    6.6969 H         1 UNK         0.0806 
    113 H113       30.1684   30.2691    6.8424 H         1 UNK         0.0806 
    114 H114       30.9212   31.7773    6.3585 H         1 UNK         0.0806 
    115 H115       28.6887   30.9772    2.4133 H         1 UNK         0.3010 
    116 H116       28.3113   33.8647    2.2505 H         1 UNK         0.0829 
    117 H117       27.9792   31.6567    0.1545 H         1 UNK         0.0813 
    118 H118       26.7088   32.2680    1.2151 H         1 UNK         0.0813 
    119 H119       27.4236   33.3167   -0.0011 H         1 UNK         0.0813 
    120 H120       30.5611   34.3149    2.7521 H         1 UNK         0.3038 
    121 H121       32.6563   34.9798    2.3892 H         1 UNK         0.0769 
    122 H122       33.4618   35.6521    0.1554 H         1 UNK         0.0811 
    123 H123       32.1161   34.8418   -0.6280 H         1 UNK         0.0811 
    124 H124       31.8272   36.2488    0.3941 H         1 UNK         0.0811 
    125 H125       32.4088   32.5473    3.2533 H         1 UNK         0.3204 
    126 H126       34.4435   30.8747    2.0334 H         1 UNK         0.0748 
    127 H127       32.8485   28.9469    1.6898 H         1 UNK         0.0771 
    128 H128       31.4964   29.9905    2.1169 H         1 UNK         0.0771 
    129 H129       32.4220   30.2934    0.6530 H         1 UNK         0.0771 
    130 H130       34.2178   28.6294    3.3168 H         1 UNK         0.2980 
    131 H131       35.0299   29.2371    5.9328 H         1 UNK         0.0545 
    132 H132       31.1550   28.0916    6.5449 H         1 UNK         0.3459 
    133 H133       31.7403   28.1092    4.9024 H         1 UNK         0.3459 
    134 H134       36.0885   27.4443    4.7637 H         1 UNK         0.0616 
    135 H135       35.3187   26.7396    6.1507 H         1 UNK         0.0616 
    136 H136       34.6427   24.2027    5.5202 H         1 UNK         0.0634 
    137 H137       33.3377   25.2135    6.1085 H         1 UNK         0.0634 
@<TRIPOS>BOND
     1    1    2 1    
     2    1   72 1    
     3    1   73 1    
     4    1   74 1    
     5    2    3 2    
     6    2    4 am   BACKBONE|DICT|INTERRES
     7    4    5 1    
     8    4   75 1    
     9    5    6 1    
    10    5   35 1    
    11    5   76 1    
    12    6    7 1    
    13    6   77 1    
    14    6   78 1    
    15    7    8 1    
    16    8    9 1    
    17    8   79 1    
    18    8   80 1    
    19    9   10 ar   
    20    9   14 ar   
    21   10   11 ar   
    22   10   81 1    
    23   11   12 ar   
    24   11   71 1    
    25   12   13 ar   
    26   12   82 1    
    27   13   14 ar   
    28   13   15 1    
    29   14   83 1    
    30   15   16 1    
    31   15   84 1    
    32   15   85 1    
    33   16   17 1    
    34   17   18 1    
    35   17   86 1    
    36   17   87 1    
    37   18   19 1    
    38   18   37 1    
    39   18   88 1    
    40   19   20 am   BACKBONE|DICT|INTERRES
    41   19   89 1    
    42   20   21 2    
    43   20   22 1    
    44   22   23 1    
    45   22   24 1    
    46   22   90 1    
    47   23   91 1    
    48   23   92 1    
    49   23   93 1    
    50   24   25 am   BACKBONE|DICT|INTERRES
    51   24   94 1    
    52   25   26 2    
    53   25   27 1    
    54   27   28 1    
    55   27   29 1    
    56   27   95 1    
    57   28   96 1    
    58   28   97 1    
    59   28   98 1    
    60   29   30 am   BACKBONE|DICT|INTERRES
    61   29   99 1    
    62   30   31 2    
    63   30   32 1    
    64   32   33 1    
    65   32   34 1    
    66   32  100 1    
    67   33  101 1    
    68   33  102 1    
    69   33  103 1    
    70   34   35 am   BACKBONE|DICT|INTERRES
    71   34  104 1    
    72   35   36 2    
    73   37   38 2    
    74   37   39 am   BACKBONE|DICT|INTERRES
    75   39   40 1    
    76   39  105 1    
    77   40   41 1    
    78   40   42 1    
    79   40  106 1    
    80   41  107 1    
    81   41  108 1    
    82   41  109 1    
    83   42   43 2    
    84   42   44 am   BACKBONE|DICT|INTERRES
    85   44   45 1    
    86   44  110 1    
    87   45   46 1    
    88   45   47 1    
    89   45  111 1    
    90   46  112 1    
    91   46  113 1    
    92   46  114 1    
    93   47   48 2    
    94   47   49 am   BACKBONE|DICT|INTERRES
    95   49   50 1    
    96   49  115 1    
    97   50   51 1    
    98   50   52 1    
    99   50  116 1    
   100   51  117 1    
   101   51  118 1    
   102   51  119 1    
   103   52   53 2    
   104   52   54 am   BACKBONE|DICT|INTERRES
   105   54   55 1    
   106   54  120 1    
   107   55   56 1    
   108   55   57 1    
   109   55  121 1    
   110   56  122 1    
   111   56  123 1    
   112   56  124 1    
   113   57   58 2    
   114   57   59 am   BACKBONE|DICT|INTERRES
   115   59   60 1    
   116   59  125 1    
   117   60   61 1    
   118   60   62 1    
   119   60  126 1    
   120   61  127 1    
   121   61  128 1    
   122   61  129 1    
   123   62   63 2    
   124   62   64 am   BACKBONE|DICT|INTERRES
   125   64   65 1    
   126   64  130 1    
   127   65   66 1    
   128   65   69 1    
   129   65  131 1    
   130   66   67 am   BACKBONE|DICT|INTERRES
   131   66   68 2    
   132   67  132 1    
   133   67  133 1    
   134   69   70 1    
   135   69  134 1    
   136   69  135 1    
   137   70   71 1    
   138   71  136 1    
   139   71  137 1    
@<TRIPOS>SUBSTRUCTURE
     1 UNK         1 GROUP             0       ****    0 ROOT    
