@<TRIPOS>MOLECULE
3R136
137   139    1
SMALL
USER_CHARGES


@<TRIPOS>ATOM
      1 CA         28.9757   22.7168   -2.0689 C.3       0 UNK        -0.1979 
      2 C          28.5288   24.1182   -2.4551 C.2       0 UNK         0.4864 
      3 O          27.8947   24.2947   -3.4974 O.2       0 UNK        -0.5359 
      4 N          28.8378   25.1177   -1.6198 N.am      1 UNK        -0.4318 
      5 CA         28.3993   26.5057   -1.7799 C.3       1 UNK         0.0824 
      6 C6         29.2204   27.4957   -0.9144 C.3       12 UNK        -0.0944 
      7 S7         29.3478   27.0366    0.8457 S.3       12 UNK        -0.2672 
      8 C8         31.0677   26.4669    0.9624 C.3       12 UNK         0.0333 
      9 C9         31.3635   26.0150    2.3811 C.ar      12 UNK        -0.0807 
     10 C10        31.8198   26.9319    3.3318 C.ar      12 UNK        -0.0894 
     11 C11        32.0425   26.5338    4.6525 C.ar      12 UNK        -0.0804 
     12 C12        31.7825   25.2105    5.0231 C.ar      12 UNK        -0.0824 
     13 C13        31.3151   24.2857    4.0828 C.ar      12 UNK        -0.0762 
     14 C14        31.1382   24.6878    2.7554 C.ar      12 UNK        -0.0782 
     15 C15        30.9786   22.8615    4.5138 C.3       12 UNK         0.0230 
     16 S16        29.2743   22.3561    4.0833 S.3       12 UNK        -0.2608 
     17 C17        28.2686   23.7467    4.7099 C.3       12 UNK        -0.0989 
     18 CA         27.6882   24.5940    3.5456 C.3       5 UNK         0.0716 
     19 N          26.6166   23.9024    2.8343 N.am      5 UNK        -0.4135 
     20 C          26.6578   23.5108    1.5573 C.2       4 UNK         0.5031 
     21 O          27.6675   23.5706    0.8524 O.2       4 UNK        -0.5229 
     22 CA         25.3488   22.9601    0.9660 C.3       4 UNK         0.0329 
     23 CB         24.0757   23.5099    1.6486 C.3       4 UNK        -0.2001 
     24 N          25.3035   23.2626   -0.4619 N.am      4 UNK        -0.4303 
     25 C          24.6616   22.5393   -1.3884 C.2       3 UNK         0.5044 
     26 O          24.0427   21.5052   -1.1295 O.2       3 UNK        -0.5152 
     27 CA         24.7275   23.0379   -2.8486 C.3       3 UNK         0.0319 
     28 CB         23.5206   22.5803   -3.6959 C.3       3 UNK        -0.2001 
     29 N          24.9406   24.4858   -2.9693 N.am      3 UNK        -0.4354 
     30 C          24.1267   25.4733   -2.5556 C.2       2 UNK         0.4964 
     31 O          23.0076   25.2840   -2.0767 O.2       2 UNK        -0.5047 
     32 CA         24.6689   26.9164   -2.6850 C.3       2 UNK         0.0288 
     33 CB         23.9954   27.8972   -1.7003 C.3       2 UNK        -0.2113 
     34 N          26.1343   26.9912   -2.5788 N.am      2 UNK        -0.4145 
     35 C          26.8786   26.5891   -1.5365 C.2       1 UNK         0.5006 
     36 O          26.4083   26.2087   -0.4616 O.2       1 UNK        -0.5103 
     37 C          27.1046   25.9368    4.0068 C.2       5 UNK         0.5055 
     38 O          26.7991   26.1038    5.1888 O.2       5 UNK        -0.5220 
     39 N          26.8955   26.8411    3.0405 N.am      6 UNK        -0.4450 
     40 CA         26.3908   28.1970    3.2450 C.3       6 UNK         0.0367 
     41 CB         25.9155   28.7761    1.8991 C.3       6 UNK        -0.1929 
     42 C          27.4393   29.0883    3.9332 C.2       6 UNK         0.5070 
     43 O          27.3220   29.3414    5.1326 O.2       6 UNK        -0.5237 
     44 N          28.4408   29.5444    3.1714 N.am      7 UNK        -0.4739 
     45 CA         29.5387   30.3981    3.6222 C.3       7 UNK         0.0276 
     46 CB         29.0259   31.8044    3.9990 C.3       7 UNK        -0.1927 
     47 C          30.5853   30.5092    2.5078 C.2       7 UNK         0.5013 
     48 O          30.2476   30.3733    1.3298 O.2       7 UNK        -0.5193 
     49 N          31.8248   30.8025    2.9060 N.am      8 UNK        -0.4253 
     50 CA         32.9608   31.1210    2.0470 C.3       8 UNK         0.0242 
     51 CB         33.6680   29.8312    1.5959 C.3       8 UNK        -0.2000 
     52 C          33.9065   32.0063    2.8627 C.2       8 UNK         0.4948 
     53 O          33.8478   31.9726    4.0940 O.2       8 UNK        -0.5275 
     54 N          34.7913   32.7519    2.1891 N.am      9 UNK        -0.4246 
     55 CA         35.7258   33.7066    2.8075 C.3       9 UNK         0.0261 
     56 CB         36.5382   34.4033    1.7033 C.3       9 UNK        -0.1959 
     57 C          36.6709   33.1109    3.8726 C.2       9 UNK         0.5033 
     58 O          37.1427   33.8481    4.7395 O.2       9 UNK        -0.5390 
     59 N          36.9225   31.7985    3.7945 N.am      10 UNK        -0.4215 
     60 CA         37.7471   31.0440    4.7354 C.3       10 UNK         0.0240 
     61 CB         38.2847   29.7934    4.0182 C.3       10 UNK        -0.1982 
     62 C          37.0213   30.6352    6.0324 C.2       10 UNK         0.4970 
     63 O          37.7126   30.2548    6.9792 O.2       10 UNK        -0.4916 
     64 N          35.6798   30.6669    6.0680 N.am      11 UNK        -0.4279 
     65 CA         34.8920   30.0625    7.1607 C.3       11 UNK         0.1003 
     66 C          33.5039   30.6992    7.4488 C.2       11 UNK         0.5709 
     67 N          33.0070   31.6420    6.6624 N.am      11 UNK        -0.7358 
     68 O          32.8688   30.3498    8.4411 O.2       11 UNK        -0.4999 
     69 C69        34.8309   28.5100    7.0608 C.3       12 UNK        -0.0954 
     70 S70        34.3227   27.8716    5.4253 S.3       12 UNK        -0.2268 
     71 C71        32.5544   27.5330    5.6798 C.3       12 UNK         0.0203 
     72 H72        29.5677   22.7191   -1.1535 H         1 UNK         0.0888 
     73 H73        29.5787   22.2798   -2.8642 H         1 UNK         0.0888 
     74 H74        28.1068   22.0800   -1.9054 H         1 UNK         0.0888 
     75 H75        29.2427   24.9005   -0.7195 H         1 UNK         0.3017 
     76 H76        28.5853   26.7798   -2.8209 H         1 UNK         0.0873 
     77 H77        28.7961   28.4997   -0.9749 H         1 UNK         0.0745 
     78 H78        30.2266   27.5850   -1.3264 H         1 UNK         0.0745 
     79 H79        31.2358   25.6498    0.2594 H         1 UNK         0.0705 
     80 H80        31.7404   27.2737    0.6718 H         1 UNK         0.0705 
     81 H81        31.9985   27.9576    3.0456 H         1 UNK         0.1334 
     82 H82        31.9359   24.9032    6.0487 H         1 UNK         0.1417 
     83 H83        30.7682   23.9786    2.0267 H         1 UNK         0.1562 
     84 H84        31.1095   22.7434    5.5906 H         1 UNK         0.0748 
     85 H85        31.6807   22.1728    4.0423 H         1 UNK         0.0748 
     86 H86        28.8816   24.3615    5.3714 H         1 UNK         0.0940 
     87 H87        27.4675   23.3477    5.3347 H         1 UNK         0.0940 
     88 H88        28.4971   24.8401    2.8585 H         1 UNK         0.0703 
     89 H89        25.7397   23.8340    3.3302 H         1 UNK         0.3081 
     90 H90        25.3817   21.8769    1.0996 H         1 UNK         0.0719 
     91 H91        24.0449   24.6004    1.6196 H         1 UNK         0.0809 
     92 H92        23.1744   23.1446    1.1558 H         1 UNK         0.0809 
     93 H93        24.0070   23.1966    2.6907 H         1 UNK         0.0809 
     94 H94        25.8151   24.0953   -0.7336 H         1 UNK         0.2990 
     95 H95        25.6168   22.5728   -3.2763 H         1 UNK         0.0690 
     96 H96        23.5969   22.9393   -4.7222 H         1 UNK         0.0788 
     97 H97        22.5763   22.9372   -3.2838 H         1 UNK         0.0788 
     98 H98        23.4632   21.4920   -3.7394 H         1 UNK         0.0788 
     99 H99        25.8552   24.7409   -3.3290 H         1 UNK         0.2993 
    100 H100       24.4174   27.2402   -3.6962 H         1 UNK         0.0949 
    101 H101       22.9244   27.9705   -1.8930 H         1 UNK         0.0767 
    102 H102       24.1158   27.5764   -0.6654 H         1 UNK         0.0767 
    103 H103       24.4100   28.9011   -1.7915 H         1 UNK         0.0767 
    104 H104       26.6129   27.2651   -3.4264 H         1 UNK         0.3013 
    105 H105       27.1768   26.6073    2.0954 H         1 UNK         0.3121 
    106 H106       25.5232   28.1425    3.9064 H         1 UNK         0.0774 
    107 H107       25.0737   28.2061    1.5066 H         1 UNK         0.0815 
    108 H108       26.6995   28.7637    1.1412 H         1 UNK         0.0815 
    109 H109       25.5822   29.8085    2.0121 H         1 UNK         0.0815 
    110 H110       28.5046   29.2670    2.1982 H         1 UNK         0.2987 
    111 H111       30.0029   29.9294    4.4929 H         1 UNK         0.0949 
    112 H112       28.5023   32.2753    3.1661 H         1 UNK         0.0806 
    113 H113       28.3440   31.7750    4.8484 H         1 UNK         0.0806 
    114 H114       29.8496   32.4623    4.2797 H         1 UNK         0.0806 
    115 H115       32.0155   30.9631    3.8881 H         1 UNK         0.3010 
    116 H116       32.6150   31.6841    1.1774 H         1 UNK         0.0829 
    117 H117       33.0014   29.2058    1.0040 H         1 UNK         0.0813 
    118 H118       34.5343   30.0529    0.9718 H         1 UNK         0.0813 
    119 H119       34.0181   29.2431    2.4455 H         1 UNK         0.0813 
    120 H120       34.7925   32.7107    1.1795 H         1 UNK         0.3038 
    121 H121       35.1218   34.4632    3.3129 H         1 UNK         0.0769 
    122 H122       37.1377   33.6921    1.1337 H         1 UNK         0.0811 
    123 H123       37.2226   35.1400    2.1268 H         1 UNK         0.0811 
    124 H124       35.8896   34.9332    1.0054 H         1 UNK         0.0811 
    125 H125       36.4891   31.2769    3.0472 H         1 UNK         0.3204 
    126 H126       38.6010   31.6615    5.0231 H         1 UNK         0.0748 
    127 H127       38.8600   30.0596    3.1312 H         1 UNK         0.0771 
    128 H128       38.9466   29.2218    4.6705 H         1 UNK         0.0771 
    129 H129       37.4777   29.1268    3.7100 H         1 UNK         0.0771 
    130 H130       35.1545   31.0261    5.2788 H         1 UNK         0.2980 
    131 H131       35.4315   30.2853    8.0832 H         1 UNK         0.0545 
    132 H132       32.1204   32.0527    6.9049 H         1 UNK         0.3459 
    133 H133       33.4616   31.9089    5.7922 H         1 UNK         0.3459 
    134 H134       35.8252   28.1060    7.2556 H         1 UNK         0.0616 
    135 H135       34.1999   28.0838    7.8424 H         1 UNK         0.0616 
    136 H136       31.9940   28.4660    5.6060 H         1 UNK         0.0634 
    137 H137       32.3917   27.1512    6.6886 H         1 UNK         0.0634 
@<TRIPOS>BOND
     1    1    2 1    
     2    1   72 1    
     3    1   73 1    
     4    1   74 1    
     5    2    3 2    
     6    2    4 am   BACKBONE|DICT|INTERRES
     7    4    5 1    
     8    4   75 1    
     9    5    6 1    
    10    5   35 1    
    11    5   76 1    
    12    6    7 1    
    13    6   77 1    
    14    6   78 1    
    15    7    8 1    
    16    8    9 1    
    17    8   79 1    
    18    8   80 1    
    19    9   10 ar   
    20    9   14 ar   
    21   10   11 ar   
    22   10   81 1    
    23   11   12 ar   
    24   11   71 1    
    25   12   13 ar   
    26   12   82 1    
    27   13   14 ar   
    28   13   15 1    
    29   14   83 1    
    30   15   16 1    
    31   15   84 1    
    32   15   85 1    
    33   16   17 1    
    34   17   18 1    
    35   17   86 1    
    36   17   87 1    
    37   18   19 1    
    38   18   37 1    
    39   18   88 1    
    40   19   20 am   BACKBONE|DICT|INTERRES
    41   19   89 1    
    42   20   21 2    
    43   20   22 1    
    44   22   23 1    
    45   22   24 1    
    46   22   90 1    
    47   23   91 1    
    48   23   92 1    
    49   23   93 1    
    50   24   25 am   BACKBONE|DICT|INTERRES
    51   24   94 1    
    52   25   26 2    
    53   25   27 1    
    54   27   28 1    
    55   27   29 1    
    56   27   95 1    
    57   28   96 1    
    58   28   97 1    
    59   28   98 1    
    60   29   30 am   BACKBONE|DICT|INTERRES
    61   29   99 1    
    62   30   31 2    
    63   30   32 1    
    64   32   33 1    
    65   32   34 1    
    66   32  100 1    
    67   33  101 1    
    68   33  102 1    
    69   33  103 1    
    70   34   35 am   BACKBONE|DICT|INTERRES
    71   34  104 1    
    72   35   36 2    
    73   37   38 2    
    74   37   39 am   BACKBONE|DICT|INTERRES
    75   39   40 1    
    76   39  105 1    
    77   40   41 1    
    78   40   42 1    
    79   40  106 1    
    80   41  107 1    
    81   41  108 1    
    82   41  109 1    
    83   42   43 2    
    84   42   44 am   BACKBONE|DICT|INTERRES
    85   44   45 1    
    86   44  110 1    
    87   45   46 1    
    88   45   47 1    
    89   45  111 1    
    90   46  112 1    
    91   46  113 1    
    92   46  114 1    
    93   47   48 2    
    94   47   49 am   BACKBONE|DICT|INTERRES
    95   49   50 1    
    96   49  115 1    
    97   50   51 1    
    98   50   52 1    
    99   50  116 1    
   100   51  117 1    
   101   51  118 1    
   102   51  119 1    
   103   52   53 2    
   104   52   54 am   BACKBONE|DICT|INTERRES
   105   54   55 1    
   106   54  120 1    
   107   55   56 1    
   108   55   57 1    
   109   55  121 1    
   110   56  122 1    
   111   56  123 1    
   112   56  124 1    
   113   57   58 2    
   114   57   59 am   BACKBONE|DICT|INTERRES
   115   59   60 1    
   116   59  125 1    
   117   60   61 1    
   118   60   62 1    
   119   60  126 1    
   120   61  127 1    
   121   61  128 1    
   122   61  129 1    
   123   62   63 2    
   124   62   64 am   BACKBONE|DICT|INTERRES
   125   64   65 1    
   126   64  130 1    
   127   65   66 1    
   128   65   69 1    
   129   65  131 1    
   130   66   67 am   BACKBONE|DICT|INTERRES
   131   66   68 2    
   132   67  132 1    
   133   67  133 1    
   134   69   70 1    
   135   69  134 1    
   136   69  135 1    
   137   70   71 1    
   138   71  136 1    
   139   71  137 1    
@<TRIPOS>SUBSTRUCTURE
     1 UNK         1 GROUP             0       ****    0 ROOT    
