@<TRIPOS>MOLECULE
3R136
137   139    1
SMALL
USER_CHARGES


@<TRIPOS>ATOM
      1 CA         26.5067   23.5525   -0.9618 C.3       0 UNK        -0.1979 
      2 C          27.3267   23.3790    0.3078 C.2       0 UNK         0.4864 
      3 O          26.8933   22.6739    1.2208 O.2       0 UNK        -0.5359 
      4 N          28.4971   24.0300    0.3658 N.am      1 UNK        -0.4318 
      5 CA         29.5156   23.9820    1.4244 C.3       1 UNK         0.0824 
      6 C6         30.1773   22.5836    1.5880 C.3       12 UNK        -0.0944 
      7 S7         30.9789   22.0088    0.0525 S.3       12 UNK        -0.2672 
      8 C8         32.7364   22.3351    0.4011 C.3       12 UNK         0.0333 
      9 C9         33.0127   23.8208    0.5788 C.ar      12 UNK        -0.0807 
     10 C10        33.3380   24.3352    1.8372 C.ar      12 UNK        -0.0894 
     11 C11        33.5888   25.7003    2.0108 C.ar      12 UNK        -0.0804 
     12 C12        33.5056   26.5518    0.9022 C.ar      12 UNK        -0.0824 
     13 C13        33.1767   26.0509   -0.3601 C.ar      12 UNK        -0.0762 
     14 C14        32.9428   24.6826   -0.5183 C.ar      12 UNK        -0.0782 
     15 C15        33.0725   26.9876   -1.5541 C.3       12 UNK         0.0230 
     16 S16        31.3669   27.0883   -2.1797 S.3       12 UNK        -0.2608 
     17 C17        30.4779   27.7667   -0.7374 C.3       12 UNK        -0.0989 
     18 CA         29.3250   28.7081   -1.1798 C.3       5 UNK         0.0716 
     19 N          28.1935   28.7207   -0.2605 N.am      5 UNK        -0.4135 
     20 C          27.3263   27.7229   -0.0867 C.2       4 UNK         0.5031 
     21 O          27.4398   26.6113   -0.6060 O.2       4 UNK        -0.5229 
     22 CA         26.0894   28.0331    0.7584 C.3       4 UNK         0.0329 
     23 CB         24.9759   28.6066   -0.1428 C.3       4 UNK        -0.2001 
     24 N          25.6518   26.8063    1.4217 N.am      4 UNK        -0.4303 
     25 C          24.6787   26.7065    2.3360 C.2       3 UNK         0.5044 
     26 O          24.0228   27.6610    2.7537 O.2       3 UNK        -0.5152 
     27 CA         24.3914   25.3012    2.8881 C.3       3 UNK         0.0319 
     28 CB         23.6269   24.4454    1.8652 C.3       3 UNK        -0.2001 
     29 N          25.6084   24.6053    3.3091 N.am      3 UNK        -0.4354 
     30 C          26.2861   24.8963    4.4304 C.2       2 UNK         0.4964 
     31 O          25.9587   25.7789    5.2228 O.2       2 UNK        -0.5047 
     32 CA         27.5414   24.0592    4.7230 C.3       2 UNK         0.0288 
     33 CB         27.1798   22.7907    5.5112 C.3       2 UNK        -0.2113 
     34 N          28.2553   23.6897    3.5047 N.am      2 UNK        -0.4145 
     35 C          28.9748   24.5358    2.7574 C.2       1 UNK         0.5006 
     36 O          29.1973   25.7054    3.0786 O.2       1 UNK        -0.5103 
     37 C          29.7825   30.1626   -1.3758 C.2       5 UNK         0.5055 
     38 O          29.3294   31.0524   -0.6488 O.2       5 UNK        -0.5220 
     39 N          30.6652   30.3776   -2.3595 N.am      6 UNK        -0.4450 
     40 CA         31.2077   31.6890   -2.7267 C.3       6 UNK         0.0367 
     41 CB         31.9812   31.5674   -4.0496 C.3       6 UNK        -0.1929 
     42 C          32.0975   32.3160   -1.6391 C.2       6 UNK         0.5070 
     43 O          32.1152   33.5405   -1.5109 O.2       6 UNK        -0.5237 
     44 N          32.8176   31.4749   -0.8831 N.am      7 UNK        -0.4739 
     45 CA         33.6502   31.8947    0.2462 C.3       7 UNK         0.0276 
     46 CB         34.6566   30.7847    0.5947 C.3       7 UNK        -0.1927 
     47 C          32.7970   32.2727    1.4673 C.2       7 UNK         0.5013 
     48 O          32.9460   33.3753    1.9954 O.2       7 UNK        -0.5193 
     49 N          31.9142   31.3534    1.8731 N.am      8 UNK        -0.4253 
     50 CA         30.9895   31.4508    2.9980 C.3       8 UNK         0.0242 
     51 CB         31.7582   31.5429    4.3343 C.3       8 UNK        -0.2000 
     52 C          30.1043   30.1990    2.9905 C.2       8 UNK         0.4948 
     53 O          30.4586   29.2043    2.3535 O.2       8 UNK        -0.5275 
     54 N          28.9944   30.2572    3.7337 N.am      9 UNK        -0.4246 
     55 CA         28.1995   29.0906    4.1102 C.3       9 UNK         0.0261 
     56 CB         26.7265   29.5106    4.2704 C.3       9 UNK        -0.1959 
     57 C          28.7585   28.5744    5.4423 C.2       9 UNK         0.5033 
     58 O          28.7333   29.3314    6.4161 O.2       9 UNK        -0.5390 
     59 N          29.2625   27.3312    5.4598 N.am      10 UNK        -0.4215 
     60 CA         29.8824   26.6565    6.6126 C.3       10 UNK         0.0240 
     61 CB         28.8288   26.3560    7.7039 C.3       10 UNK        -0.1982 
     62 C          31.0882   27.4472    7.1608 C.2       10 UNK         0.4970 
     63 O          31.0325   27.9613    8.2799 O.2       10 UNK        -0.4916 
     64 N          32.1268   27.5614    6.3225 N.am      11 UNK        -0.4279 
     65 CA         33.3461   28.3662    6.5141 C.3       11 UNK         0.1003 
     66 C          34.0130   28.2219    7.9120 C.2       11 UNK         0.5709 
     67 N          34.4337   29.3231    8.5200 N.am      11 UNK        -0.7358 
     68 O          34.1981   27.1168    8.4192 O.2       11 UNK        -0.4999 
     69 C69        34.4018   28.0809    5.4101 C.3       12 UNK        -0.0954 
     70 S70        33.7260   27.9748    3.7166 S.3       12 UNK        -0.2268 
     71 C71        33.9957   26.1957    3.3974 C.3       12 UNK         0.0203 
     72 H72        25.7447   24.3180   -0.8234 H         1 UNK         0.0888 
     73 H73        27.1339   23.8505   -1.8021 H         1 UNK         0.0888 
     74 H74        26.0128   22.6178   -1.2258 H         1 UNK         0.0888 
     75 H75        28.7089   24.6711   -0.3883 H         1 UNK         0.3017 
     76 H76        30.2964   24.6775    1.1123 H         1 UNK         0.0873 
     77 H77        30.9149   22.5981    2.3925 H         1 UNK         0.0745 
     78 H78        29.4406   21.8299    1.8699 H         1 UNK         0.0745 
     79 H79        33.0402   21.7705    1.2840 H         1 UNK         0.0705 
     80 H80        33.3369   21.9544   -0.4263 H         1 UNK         0.0705 
     81 H81        33.4051   23.6678    2.6858 H         1 UNK         0.1334 
     82 H82        33.7025   27.6068    1.0139 H         1 UNK         0.1417 
     83 H83        32.6848   24.2911   -1.4933 H         1 UNK         0.1562 
     84 H84        33.7220   26.6252   -2.3521 H         1 UNK         0.0748 
     85 H85        33.4251   27.9890   -1.3024 H         1 UNK         0.0748 
     86 H86        31.1678   28.2694   -0.0574 H         1 UNK         0.0940 
     87 H87        30.0937   26.9153   -0.1746 H         1 UNK         0.0940 
     88 H88        28.9283   28.3705   -2.1403 H         1 UNK         0.0703 
     89 H89        28.0416   29.6260    0.1687 H         1 UNK         0.3081 
     90 H90        26.3610   28.7649    1.5172 H         1 UNK         0.0719 
     91 H91        24.6359   27.8724   -0.8744 H         1 UNK         0.0809 
     92 H92        24.1100   28.9285    0.4350 H         1 UNK         0.0809 
     93 H93        25.3274   29.4788   -0.6957 H         1 UNK         0.0809 
     94 H94        26.1570   25.9797    1.1324 H         1 UNK         0.2990 
     95 H95        23.7478   25.4184    3.7631 H         1 UNK         0.0690 
     96 H96        23.3320   23.4876    2.2945 H         1 UNK         0.0788 
     97 H97        24.2213   24.2416    0.9757 H         1 UNK         0.0788 
     98 H98        22.7148   24.9482    1.5404 H         1 UNK         0.0788 
     99 H99        25.9512   23.8633    2.7083 H         1 UNK         0.2993 
    100 H100       28.2107   24.6598    5.3367 H         1 UNK         0.0949 
    101 H101       26.5221   22.1330    4.9413 H         1 UNK         0.0767 
    102 H102       28.0715   22.2238    5.7799 H         1 UNK         0.0767 
    103 H103       26.6654   23.0431    6.4397 H         1 UNK         0.0767 
    104 H104       28.0443   22.7827    3.1070 H         1 UNK         0.3013 
    105 H105       30.9844   29.5833   -2.8983 H         1 UNK         0.3121 
    106 H106       30.3642   32.3645   -2.8861 H         1 UNK         0.0774 
    107 H107       32.8256   30.8823   -3.9638 H         1 UNK         0.0815 
    108 H108       32.3778   32.5355   -4.3592 H         1 UNK         0.0815 
    109 H109       31.3385   31.2111   -4.8549 H         1 UNK         0.0815 
    110 H110       32.7492   30.4862   -1.0694 H         1 UNK         0.2987 
    111 H111       34.2170   32.7801   -0.0518 H         1 UNK         0.0949 
    112 H112       34.1603   29.8652    0.9029 H         1 UNK         0.0806 
    113 H113       35.3010   30.5517   -0.2531 H         1 UNK         0.0806 
    114 H114       35.3037   31.0928    1.4172 H         1 UNK         0.0806 
    115 H115       31.8392   30.4729    1.3792 H         1 UNK         0.3010 
    116 H116       30.3595   32.3320    2.8615 H         1 UNK         0.0829 
    117 H117       31.0815   31.5098    5.1892 H         1 UNK         0.0813 
    118 H118       32.4612   30.7171    4.4433 H         1 UNK         0.0813 
    119 H119       32.3218   32.4721    4.4142 H         1 UNK         0.0813 
    120 H120       28.8089   31.0989    4.2611 H         1 UNK         0.3038 
    121 H121       28.2654   28.3153    3.3431 H         1 UNK         0.0769 
    122 H122       26.5840   30.1954    5.1074 H         1 UNK         0.0811 
    123 H123       26.0966   28.6395    4.4552 H         1 UNK         0.0811 
    124 H124       26.3462   30.0094    3.3804 H         1 UNK         0.0811 
    125 H125       29.2679   26.8086    4.5837 H         1 UNK         0.3204 
    126 H126       30.2667   25.7017    6.2502 H         1 UNK         0.0748 
    127 H127       29.2652   25.7679    8.5122 H         1 UNK         0.0771 
    128 H128       28.4309   27.2691    8.1481 H         1 UNK         0.0771 
    129 H129       27.9842   25.7912    7.3122 H         1 UNK         0.0771 
    130 H130       32.0571   27.1235    5.4163 H         1 UNK         0.2980 
    131 H131       33.0244   29.4031    6.4062 H         1 UNK         0.0545 
    132 H132       34.8845   29.2436    9.4181 H         1 UNK         0.3459 
    133 H133       34.3020   30.2326    8.1055 H         1 UNK         0.3459 
    134 H134       34.9405   27.1569    5.6299 H         1 UNK         0.0616 
    135 H135       35.1579   28.8680    5.4120 H         1 UNK         0.0616 
    136 H136       33.4557   25.6292    4.1578 H         1 UNK         0.0634 
    137 H137       35.0548   25.9735    3.5342 H         1 UNK         0.0634 
@<TRIPOS>BOND
     1    1    2 1    
     2    1   72 1    
     3    1   73 1    
     4    1   74 1    
     5    2    3 2    
     6    2    4 am   BACKBONE|DICT|INTERRES
     7    4    5 1    
     8    4   75 1    
     9    5    6 1    
    10    5   35 1    
    11    5   76 1    
    12    6    7 1    
    13    6   77 1    
    14    6   78 1    
    15    7    8 1    
    16    8    9 1    
    17    8   79 1    
    18    8   80 1    
    19    9   10 ar   
    20    9   14 ar   
    21   10   11 ar   
    22   10   81 1    
    23   11   12 ar   
    24   11   71 1    
    25   12   13 ar   
    26   12   82 1    
    27   13   14 ar   
    28   13   15 1    
    29   14   83 1    
    30   15   16 1    
    31   15   84 1    
    32   15   85 1    
    33   16   17 1    
    34   17   18 1    
    35   17   86 1    
    36   17   87 1    
    37   18   19 1    
    38   18   37 1    
    39   18   88 1    
    40   19   20 am   BACKBONE|DICT|INTERRES
    41   19   89 1    
    42   20   21 2    
    43   20   22 1    
    44   22   23 1    
    45   22   24 1    
    46   22   90 1    
    47   23   91 1    
    48   23   92 1    
    49   23   93 1    
    50   24   25 am   BACKBONE|DICT|INTERRES
    51   24   94 1    
    52   25   26 2    
    53   25   27 1    
    54   27   28 1    
    55   27   29 1    
    56   27   95 1    
    57   28   96 1    
    58   28   97 1    
    59   28   98 1    
    60   29   30 am   BACKBONE|DICT|INTERRES
    61   29   99 1    
    62   30   31 2    
    63   30   32 1    
    64   32   33 1    
    65   32   34 1    
    66   32  100 1    
    67   33  101 1    
    68   33  102 1    
    69   33  103 1    
    70   34   35 am   BACKBONE|DICT|INTERRES
    71   34  104 1    
    72   35   36 2    
    73   37   38 2    
    74   37   39 am   BACKBONE|DICT|INTERRES
    75   39   40 1    
    76   39  105 1    
    77   40   41 1    
    78   40   42 1    
    79   40  106 1    
    80   41  107 1    
    81   41  108 1    
    82   41  109 1    
    83   42   43 2    
    84   42   44 am   BACKBONE|DICT|INTERRES
    85   44   45 1    
    86   44  110 1    
    87   45   46 1    
    88   45   47 1    
    89   45  111 1    
    90   46  112 1    
    91   46  113 1    
    92   46  114 1    
    93   47   48 2    
    94   47   49 am   BACKBONE|DICT|INTERRES
    95   49   50 1    
    96   49  115 1    
    97   50   51 1    
    98   50   52 1    
    99   50  116 1    
   100   51  117 1    
   101   51  118 1    
   102   51  119 1    
   103   52   53 2    
   104   52   54 am   BACKBONE|DICT|INTERRES
   105   54   55 1    
   106   54  120 1    
   107   55   56 1    
   108   55   57 1    
   109   55  121 1    
   110   56  122 1    
   111   56  123 1    
   112   56  124 1    
   113   57   58 2    
   114   57   59 am   BACKBONE|DICT|INTERRES
   115   59   60 1    
   116   59  125 1    
   117   60   61 1    
   118   60   62 1    
   119   60  126 1    
   120   61  127 1    
   121   61  128 1    
   122   61  129 1    
   123   62   63 2    
   124   62   64 am   BACKBONE|DICT|INTERRES
   125   64   65 1    
   126   64  130 1    
   127   65   66 1    
   128   65   69 1    
   129   65  131 1    
   130   66   67 am   BACKBONE|DICT|INTERRES
   131   66   68 2    
   132   67  132 1    
   133   67  133 1    
   134   69   70 1    
   135   69  134 1    
   136   69  135 1    
   137   70   71 1    
   138   71  136 1    
   139   71  137 1    
@<TRIPOS>SUBSTRUCTURE
     1 UNK         1 GROUP             0       ****    0 ROOT    
