@<TRIPOS>MOLECULE
3R136
137   139    1
SMALL
USER_CHARGES


@<TRIPOS>ATOM
      1 CA         27.1636   20.4760    4.3814 C.3       0 UNK        -0.1979 
      2 C          27.7260   21.6674    3.6205 C.2       0 UNK         0.4864 
      3 O          28.4353   22.4844    4.2067 O.2       0 UNK        -0.5359 
      4 N          27.3997   21.7786    2.3233 N.am      1 UNK        -0.4318 
      5 CA         27.8498   22.8211    1.3835 C.3       1 UNK         0.0824 
      6 C6         29.4008   22.8968    1.2712 C.3       12 UNK        -0.0944 
      7 S7         29.9811   23.1981   -0.4292 S.3       12 UNK        -0.2672 
      8 C8         31.7529   22.8154   -0.2563 C.3       12 UNK         0.0333 
      9 C9         32.5373   24.0171    0.2488 C.ar      12 UNK        -0.0807 
     10 C10        32.8361   24.1639    1.6067 C.ar      12 UNK        -0.0894 
     11 C11        33.5761   25.2645    2.0554 C.ar      12 UNK        -0.0804 
     12 C12        33.9955   26.2334    1.1364 C.ar      12 UNK        -0.0824 
     13 C13        33.6920   26.1011   -0.2223 C.ar      12 UNK        -0.0762 
     14 C14        32.9814   24.9798   -0.6594 C.ar      12 UNK        -0.0782 
     15 C15        34.1506   27.1511   -1.2263 C.3       12 UNK         0.0230 
     16 S16        33.0511   28.6056   -1.2815 S.3       12 UNK        -0.2608 
     17 C17        31.4736   27.9057   -1.8942 C.3       12 UNK        -0.0989 
     18 CA         30.1629   28.4097   -1.2248 C.3       5 UNK         0.0716 
     19 N          29.0340   27.5663   -1.6367 N.am      5 UNK        -0.4135 
     20 C          27.7389   27.7443   -1.3442 C.2       4 UNK         0.5031 
     21 O          27.3255   28.6099   -0.5712 O.2       4 UNK        -0.5229 
     22 CA         26.7340   26.8241   -2.0602 C.3       4 UNK         0.0329 
     23 CB         27.3732   25.5969   -2.7458 C.3       4 UNK        -0.2001 
     24 N          25.7340   26.3572   -1.1060 N.am      4 UNK        -0.4303 
     25 C          24.4057   26.4696   -1.2434 C.2       3 UNK         0.5044 
     26 O          23.8630   27.0230   -2.2011 O.2       3 UNK        -0.5152 
     27 CA         23.5145   25.8311   -0.1571 C.3       3 UNK         0.0319 
     28 CB         22.7371   24.6349   -0.7326 C.3       3 UNK        -0.2001 
     29 N          24.2695   25.3779    1.0125 N.am      3 UNK        -0.4354 
     30 C          24.6941   26.1752    2.0012 C.2       2 UNK         0.4964 
     31 O          24.3750   27.3581    2.1058 O.2       2 UNK        -0.5047 
     32 CA         25.6440   25.5603    3.0445 C.3       2 UNK         0.0288 
     33 CB         24.9001   25.2956    4.3634 C.3       2 UNK        -0.2113 
     34 N          26.3072   24.3219    2.6158 N.am      2 UNK        -0.4145 
     35 C          27.2049   24.2097    1.6237 C.2       1 UNK         0.5006 
     36 O          27.5100   25.1558    0.8950 O.2       1 UNK        -0.5103 
     37 C          30.2609   28.6379    0.3026 C.2       5 UNK         0.5055 
     38 O          30.6104   29.7471    0.7130 O.2       5 UNK        -0.5220 
     39 N          29.8887   27.6451    1.1260 N.am      6 UNK        -0.4450 
     40 CA         29.9134   27.7565    2.5914 C.3       6 UNK         0.0367 
     41 CB         29.7792   26.3690    3.2327 C.3       6 UNK        -0.1929 
     42 C          28.8917   28.7485    3.1842 C.2       6 UNK         0.5070 
     43 O          28.9668   29.0354    4.3787 O.2       6 UNK        -0.5237 
     44 N          27.9779   29.2872    2.3622 N.am      7 UNK        -0.4739 
     45 CA         27.1458   30.4397    2.7181 C.3       7 UNK         0.0276 
     46 CB         26.0079   30.5851    1.6956 C.3       7 UNK        -0.1927 
     47 C          27.9471   31.7547    2.7912 C.2       7 UNK         0.5013 
     48 O          27.5191   32.6716    3.4937 O.2       7 UNK        -0.5193 
     49 N          29.0665   31.8350    2.0567 N.am      8 UNK        -0.4253 
     50 CA         29.9221   33.0175    1.9548 C.3       8 UNK         0.0242 
     51 CB         30.0854   33.3929    0.4722 C.3       8 UNK        -0.2000 
     52 C          31.2957   32.7900    2.6016 C.2       8 UNK         0.4948 
     53 O          31.7955   33.6949    3.2721 O.2       8 UNK        -0.5275 
     54 N          31.8965   31.6128    2.3779 N.am      9 UNK        -0.4246 
     55 CA         33.2164   31.2465    2.8928 C.3       9 UNK         0.0261 
     56 CB         33.7165   29.9900    2.1632 C.3       9 UNK        -0.1959 
     57 C          33.2079   31.0154    4.4113 C.2       9 UNK         0.5033 
     58 O          32.2602   30.4339    4.9444 O.2       9 UNK        -0.5390 
     59 N          34.2957   31.4254    5.0746 N.am      10 UNK        -0.4215 
     60 CA         34.5381   31.2174    6.5034 C.3       10 UNK         0.0240 
     61 CB         35.4711   32.3294    7.0201 C.3       10 UNK        -0.1982 
     62 C          35.0967   29.8050    6.7577 C.2       10 UNK         0.4970 
     63 O          36.2548   29.6604    7.1543 O.2       10 UNK        -0.4916 
     64 N          34.2710   28.7907    6.4784 N.am      11 UNK        -0.4279 
     65 CA         34.5788   27.3632    6.6466 C.3       11 UNK         0.1003 
     66 C          34.8857   26.9765    8.1203 C.2       11 UNK         0.5709 
     67 N          35.8047   26.0458    8.3396 N.am      11 UNK        -0.7358 
     68 O          34.2695   27.4792    9.0588 O.2       11 UNK        -0.4999 
     69 C69        33.4439   26.4715    6.0824 C.3       12 UNK        -0.0954 
     70 S70        33.0974   26.7867    4.3203 S.3       12 UNK        -0.2268 
     71 C71        33.9463   25.3896    3.5271 C.3       12 UNK         0.0203 
     72 H72        27.9764   19.8679    4.7775 H         1 UNK         0.0888 
     73 H73        26.5552   20.8179    5.2183 H         1 UNK         0.0888 
     74 H74        26.5437   19.8415    3.7481 H         1 UNK         0.0888 
     75 H75        26.8019   21.0725    1.9143 H         1 UNK         0.3017 
     76 H76        27.4581   22.4943    0.4189 H         1 UNK         0.0873 
     77 H77        29.8403   21.9495    1.5870 H         1 UNK         0.0745 
     78 H78        29.8187   23.6482    1.9415 H         1 UNK         0.0745 
     79 H79        32.1390   22.5119   -1.2305 H         1 UNK         0.0705 
     80 H80        31.8941   21.9565    0.4014 H         1 UNK         0.0705 
     81 H81        32.5021   23.4146    2.3113 H         1 UNK         0.1334 
     82 H82        34.5586   27.0902    1.4802 H         1 UNK         0.1417 
     83 H83        32.7603   24.8578   -1.7111 H         1 UNK         0.1562 
     84 H84        34.2245   26.7206   -2.2262 H         1 UNK         0.0748 
     85 H85        35.1566   27.4843   -0.9670 H         1 UNK         0.0748 
     86 H86        31.5151   26.8231   -1.8076 H         1 UNK         0.0940 
     87 H87        31.4267   28.1010   -2.9667 H         1 UNK         0.0940 
     88 H88        29.9593   29.3975   -1.6436 H         1 UNK         0.0703 
     89 H89        29.2597   26.8096   -2.2649 H         1 UNK         0.3081 
     90 H90        26.2634   27.4364   -2.8318 H         1 UNK         0.0719 
     91 H91        26.6107   24.9705   -3.2094 H         1 UNK         0.0809 
     92 H92        28.0603   25.8895   -3.5405 H         1 UNK         0.0809 
     93 H93        27.9185   24.9733   -2.0354 H         1 UNK         0.0809 
     94 H94        26.1146   25.9449   -0.2598 H         1 UNK         0.2990 
     95 H95        22.7920   26.5871    0.1578 H         1 UNK         0.0690 
     96 H96        22.1237   24.9390   -1.5820 H         1 UNK         0.0788 
     97 H97        22.0655   24.2034    0.0099 H         1 UNK         0.0788 
     98 H98        23.4066   23.8471   -1.0803 H         1 UNK         0.0788 
     99 H99        24.5592   24.4111    1.0197 H         1 UNK         0.2993 
    100 H100       26.4202   26.3045    3.2343 H         1 UNK         0.0949 
    101 H101       24.1200   24.5427    4.2428 H         1 UNK         0.0767 
    102 H102       25.5824   24.9530    5.1418 H         1 UNK         0.0767 
    103 H103       24.4223   26.2045    4.7323 H         1 UNK         0.0767 
    104 H104       26.1216   23.4984    3.1692 H         1 UNK         0.3013 
    105 H105       29.5441   26.7781    0.7351 H         1 UNK         0.3121 
    106 H106       30.8971   28.1438    2.8627 H         1 UNK         0.0774 
    107 H107       28.7885   25.9498    3.0868 H         1 UNK         0.0815 
    108 H108       29.9458   26.4240    4.3092 H         1 UNK         0.0815 
    109 H109       30.5161   25.6748    2.8311 H         1 UNK         0.0815 
    110 H110       27.9361   28.9793    1.3953 H         1 UNK         0.2987 
    111 H111       26.7056   30.2584    3.7011 H         1 UNK         0.0949 
    112 H112       26.3870   30.8253    0.7015 H         1 UNK         0.0806 
    113 H113       25.4230   29.6706    1.6147 H         1 UNK         0.0806 
    114 H114       25.3234   31.3836    1.9848 H         1 UNK         0.0806 
    115 H115       29.3723   31.0130    1.5444 H         1 UNK         0.3010 
    116 H116       29.4598   33.8655    2.4646 H         1 UNK         0.0829 
    117 H117       29.1237   33.6311    0.0173 H         1 UNK         0.0813 
    118 H118       30.7236   34.2704    0.3590 H         1 UNK         0.0813 
    119 H119       30.5361   32.5834   -0.1040 H         1 UNK         0.0813 
    120 H120       31.4253   30.9151    1.8048 H         1 UNK         0.3038 
    121 H121       33.9017   32.0668    2.6681 H         1 UNK         0.0769 
    122 H122       33.0234   29.1556    2.2737 H         1 UNK         0.0811 
    123 H123       34.6831   29.6642    2.5495 H         1 UNK         0.0811 
    124 H124       33.8418   30.1809    1.0981 H         1 UNK         0.0811 
    125 H125       35.0465   31.8563    4.5537 H         1 UNK         0.3204 
    126 H126       33.5934   31.2997    7.0458 H         1 UNK         0.0748 
    127 H127       36.4370   32.3189    6.5133 H         1 UNK         0.0771 
    128 H128       35.0285   33.3154    6.8771 H         1 UNK         0.0771 
    129 H129       35.6613   32.2136    8.0881 H         1 UNK         0.0771 
    130 H130       33.3530   29.0109    6.1095 H         1 UNK         0.2980 
    131 H131       35.4795   27.1693    6.0607 H         1 UNK         0.0545 
    132 H132       36.0058   25.7710    9.2884 H         1 UNK         0.3459 
    133 H133       36.3074   25.6180    7.5776 H         1 UNK         0.3459 
    134 H134       33.6824   25.4149    6.2159 H         1 UNK         0.0616 
    135 H135       32.5188   26.6421    6.6365 H         1 UNK         0.0616 
    136 H136       33.6974   24.4691    4.0573 H         1 UNK         0.0634 
    137 H137       35.0246   25.5235    3.6235 H         1 UNK         0.0634 
@<TRIPOS>BOND
     1    1    2 1    
     2    1   72 1    
     3    1   73 1    
     4    1   74 1    
     5    2    3 2    
     6    2    4 am   BACKBONE|DICT|INTERRES
     7    4    5 1    
     8    4   75 1    
     9    5    6 1    
    10    5   35 1    
    11    5   76 1    
    12    6    7 1    
    13    6   77 1    
    14    6   78 1    
    15    7    8 1    
    16    8    9 1    
    17    8   79 1    
    18    8   80 1    
    19    9   10 ar   
    20    9   14 ar   
    21   10   11 ar   
    22   10   81 1    
    23   11   12 ar   
    24   11   71 1    
    25   12   13 ar   
    26   12   82 1    
    27   13   14 ar   
    28   13   15 1    
    29   14   83 1    
    30   15   16 1    
    31   15   84 1    
    32   15   85 1    
    33   16   17 1    
    34   17   18 1    
    35   17   86 1    
    36   17   87 1    
    37   18   19 1    
    38   18   37 1    
    39   18   88 1    
    40   19   20 am   BACKBONE|DICT|INTERRES
    41   19   89 1    
    42   20   21 2    
    43   20   22 1    
    44   22   23 1    
    45   22   24 1    
    46   22   90 1    
    47   23   91 1    
    48   23   92 1    
    49   23   93 1    
    50   24   25 am   BACKBONE|DICT|INTERRES
    51   24   94 1    
    52   25   26 2    
    53   25   27 1    
    54   27   28 1    
    55   27   29 1    
    56   27   95 1    
    57   28   96 1    
    58   28   97 1    
    59   28   98 1    
    60   29   30 am   BACKBONE|DICT|INTERRES
    61   29   99 1    
    62   30   31 2    
    63   30   32 1    
    64   32   33 1    
    65   32   34 1    
    66   32  100 1    
    67   33  101 1    
    68   33  102 1    
    69   33  103 1    
    70   34   35 am   BACKBONE|DICT|INTERRES
    71   34  104 1    
    72   35   36 2    
    73   37   38 2    
    74   37   39 am   BACKBONE|DICT|INTERRES
    75   39   40 1    
    76   39  105 1    
    77   40   41 1    
    78   40   42 1    
    79   40  106 1    
    80   41  107 1    
    81   41  108 1    
    82   41  109 1    
    83   42   43 2    
    84   42   44 am   BACKBONE|DICT|INTERRES
    85   44   45 1    
    86   44  110 1    
    87   45   46 1    
    88   45   47 1    
    89   45  111 1    
    90   46  112 1    
    91   46  113 1    
    92   46  114 1    
    93   47   48 2    
    94   47   49 am   BACKBONE|DICT|INTERRES
    95   49   50 1    
    96   49  115 1    
    97   50   51 1    
    98   50   52 1    
    99   50  116 1    
   100   51  117 1    
   101   51  118 1    
   102   51  119 1    
   103   52   53 2    
   104   52   54 am   BACKBONE|DICT|INTERRES
   105   54   55 1    
   106   54  120 1    
   107   55   56 1    
   108   55   57 1    
   109   55  121 1    
   110   56  122 1    
   111   56  123 1    
   112   56  124 1    
   113   57   58 2    
   114   57   59 am   BACKBONE|DICT|INTERRES
   115   59   60 1    
   116   59  125 1    
   117   60   61 1    
   118   60   62 1    
   119   60  126 1    
   120   61  127 1    
   121   61  128 1    
   122   61  129 1    
   123   62   63 2    
   124   62   64 am   BACKBONE|DICT|INTERRES
   125   64   65 1    
   126   64  130 1    
   127   65   66 1    
   128   65   69 1    
   129   65  131 1    
   130   66   67 am   BACKBONE|DICT|INTERRES
   131   66   68 2    
   132   67  132 1    
   133   67  133 1    
   134   69   70 1    
   135   69  134 1    
   136   69  135 1    
   137   70   71 1    
   138   71  136 1    
   139   71  137 1    
@<TRIPOS>SUBSTRUCTURE
     1 UNK         1 GROUP             0       ****    0 ROOT    
