@<TRIPOS>MOLECULE
3R136
137   139    1
SMALL
USER_CHARGES


@<TRIPOS>ATOM
      1 CA         27.1920   21.6706    2.3868 C.3       0 UNK        -0.1979 
      2 C          27.7680   21.6460    0.9809 C.2       0 UNK         0.4864 
      3 O          27.0501   21.3217    0.0336 O.2       0 UNK        -0.5359 
      4 N          29.0618   21.9667    0.8397 N.am      1 UNK        -0.4318 
      5 CA         29.7775   21.9727   -0.4444 C.3       1 UNK         0.0824 
      6 C6         31.3187   21.8894   -0.2921 C.3       12 UNK        -0.0944 
      7 S7         31.8414   20.6866    0.9834 S.3       12 UNK        -0.2672 
      8 C8         32.8361   21.7011    2.1275 C.3       12 UNK         0.0333 
      9 C9         32.1216   22.9546    2.6238 C.ar      12 UNK        -0.0807 
     10 C10        32.4774   24.2021    2.1021 C.ar      12 UNK        -0.0894 
     11 C11        31.8906   25.3755    2.5840 C.ar      12 UNK        -0.0804 
     12 C12        30.9413   25.2866    3.6045 C.ar      12 UNK        -0.0824 
     13 C13        30.5440   24.0475    4.1157 C.ar      12 UNK        -0.0762 
     14 C14        31.1440   22.8812    3.6230 C.ar      12 UNK        -0.0782 
     15 C15        29.5021   23.9762    5.2287 C.3       12 UNK         0.0230 
     16 S16        27.8058   24.3340    4.6474 S.3       12 UNK        -0.2608 
     17 C17        27.7381   26.1578    4.6836 C.3       12 UNK        -0.0989 
     18 CA         27.6645   26.7641    3.2552 C.3       5 UNK         0.0716 
     19 N          26.3408   26.6424    2.6196 N.am      5 UNK        -0.4135 
     20 C          25.1814   27.2163    2.9802 C.2       4 UNK         0.5031 
     21 O          25.0650   27.9429    3.9683 O.2       4 UNK        -0.5229 
     22 CA         23.9629   26.9946    2.0664 C.3       4 UNK         0.0329 
     23 CB         22.9903   28.1903    2.0792 C.3       4 UNK        -0.2001 
     24 N          24.3764   26.7227    0.6883 N.am      4 UNK        -0.4303 
     25 C          23.8712   25.7537   -0.0831 C.2       3 UNK         0.5044 
     26 O          22.9238   25.0379    0.2452 O.2       3 UNK        -0.5152 
     27 CA         24.5395   25.5236   -1.4533 C.3       3 UNK         0.0319 
     28 CB         23.8225   26.3476   -2.5356 C.3       3 UNK        -0.2001 
     29 N          25.9888   25.7714   -1.5424 N.am      3 UNK        -0.4354 
     30 C          26.9337   25.3212   -0.7042 C.2       2 UNK         0.4964 
     31 O          26.7045   24.8290    0.4035 O.2       2 UNK        -0.5047 
     32 CA         28.3915   25.4668   -1.1631 C.3       2 UNK         0.0288 
     33 CB         29.0082   26.7706   -0.6311 C.3       2 UNK        -0.2113 
     34 N          29.1367   24.3273   -0.6345 N.am      2 UNK        -0.4145 
     35 C          29.3662   23.1873   -1.3013 C.2       1 UNK         0.5006 
     36 O          29.2258   23.0586   -2.5189 O.2       1 UNK        -0.5103 
     37 C          28.2716   28.1861    3.2315 C.2       5 UNK         0.5055 
     38 O          29.4819   28.2988    3.0518 O.2       5 UNK        -0.5220 
     39 N          27.4643   29.2356    3.4242 N.am      6 UNK        -0.4450 
     40 CA         27.8546   30.6431    3.5579 C.3       6 UNK         0.0367 
     41 CB         26.6766   31.4167    4.1794 C.3       6 UNK        -0.1929 
     42 C          28.3701   31.2974    2.2559 C.2       6 UNK         0.5070 
     43 O          27.8448   32.3279    1.8310 O.2       6 UNK        -0.5237 
     44 N          29.4105   30.7075    1.6642 N.am      7 UNK        -0.4739 
     45 CA         30.2202   31.2586    0.5805 C.3       7 UNK         0.0276 
     46 CB         30.1488   30.3143   -0.6292 C.3       7 UNK        -0.1927 
     47 C          31.6632   31.3614    1.0876 C.2       7 UNK         0.5013 
     48 O          32.0775   30.5157    1.8827 O.2       7 UNK        -0.5193 
     49 N          32.4010   32.3883    0.6402 N.am      8 UNK        -0.4253 
     50 CA         33.8025   32.6742    0.9960 C.3       8 UNK         0.0242 
     51 CB         34.7411   31.6449    0.3292 C.3       8 UNK        -0.2000 
     52 C          34.0342   32.7887    2.5194 C.2       8 UNK         0.4948 
     53 O          34.9835   32.2046    3.0463 O.2       8 UNK        -0.5275 
     54 N          33.1227   33.5027    3.2004 N.am      9 UNK        -0.4246 
     55 CA         33.0322   33.6579    4.6611 C.3       9 UNK         0.0261 
     56 CB         34.2283   34.4704    5.2035 C.3       9 UNK        -0.1959 
     57 C          32.8344   32.3132    5.3949 C.2       9 UNK         0.5033 
     58 O          33.4210   32.0992    6.4572 O.2       9 UNK        -0.5390 
     59 N          32.0150   31.4363    4.7939 N.am      10 UNK        -0.4215 
     60 CA         31.7713   30.0369    5.1625 C.3       10 UNK         0.0240 
     61 CB         31.0872   29.9172    6.5410 C.3       10 UNK        -0.1982 
     62 C          33.0442   29.1816    5.0192 C.2       10 UNK         0.4970 
     63 O          33.4011   28.4424    5.9386 O.2       10 UNK        -0.4916 
     64 N          33.6972   29.3185    3.8568 N.am      11 UNK        -0.4279 
     65 CA         34.9659   28.6845    3.4722 C.3       11 UNK         0.1003 
     66 C          36.1222   29.0006    4.4632 C.2       11 UNK         0.5709 
     67 N          36.3872   30.2770    4.7120 N.am      11 UNK        -0.7358 
     68 O          36.7823   28.1118    4.9980 O.2       11 UNK        -0.4999 
     69 C69        34.7926   27.1770    3.1303 C.3       12 UNK        -0.0954 
     70 S70        33.9737   26.9580    1.5151 S.3       12 UNK        -0.2268 
     71 C71        32.2264   26.7414    1.9885 C.3       12 UNK         0.0203 
     72 H72        26.6191   20.7637    2.5775 H         1 UNK         0.0888 
     73 H73        27.9742   21.7391    3.1423 H         1 UNK         0.0888 
     74 H74        26.5265   22.5264    2.4994 H         1 UNK         0.0888 
     75 H75        29.6195   22.1916    1.6516 H         1 UNK         0.3017 
     76 H76        29.4634   21.0795   -0.9895 H         1 UNK         0.0873 
     77 H77        31.7448   22.8684   -0.0789 H         1 UNK         0.0745 
     78 H78        31.7641   21.5849   -1.2408 H         1 UNK         0.0745 
     79 H79        33.7709   21.9678    1.6316 H         1 UNK         0.0705 
     80 H80        33.1180   21.0861    2.9834 H         1 UNK         0.0705 
     81 H81        33.2194   24.2577    1.3177 H         1 UNK         0.1334 
     82 H82        30.5038   26.1909    3.9972 H         1 UNK         0.1417 
     83 H83        30.8687   21.9172    4.0298 H         1 UNK         0.1562 
     84 H84        29.7742   24.6568    6.0365 H         1 UNK         0.0748 
     85 H85        29.5013   22.9792    5.6718 H         1 UNK         0.0748 
     86 H86        28.6056   26.5254    5.2346 H         1 UNK         0.0940 
     87 H87        26.8771   26.4625    5.2801 H         1 UNK         0.0940 
     88 H88        28.3237   26.1727    2.6183 H         1 UNK         0.0703 
     89 H89        26.3252   26.0174    1.8165 H         1 UNK         0.3081 
     90 H90        23.4429   26.1268    2.4774 H         1 UNK         0.0719 
     91 H91        23.4721   29.1039    1.7290 H         1 UNK         0.0809 
     92 H92        22.1249   28.0026    1.4434 H         1 UNK         0.0809 
     93 H93        22.6132   28.3824    3.0846 H         1 UNK         0.0809 
     94 H94        25.1457   27.2700    0.3282 H         1 UNK         0.2990 
     95 H95        24.3976   24.4672   -1.6901 H         1 UNK         0.0690 
     96 H96        24.1716   26.0844   -3.5343 H         1 UNK         0.0788 
     97 H97        23.9777   27.4182   -2.3954 H         1 UNK         0.0788 
     98 H98        22.7461   26.1693   -2.5160 H         1 UNK         0.0788 
     99 H99        26.2967   26.2039   -2.4020 H         1 UNK         0.2993 
    100 H100       28.4299   25.4736   -2.2548 H         1 UNK         0.0949 
    101 H101       30.0365   26.8838   -0.9747 H         1 UNK         0.0767 
    102 H102       28.4517   27.6402   -0.9826 H         1 UNK         0.0767 
    103 H103       29.0181   26.8064    0.4577 H         1 UNK         0.0767 
    104 H104       29.2182   24.2949    0.3714 H         1 UNK         0.3013 
    105 H105       26.4849   29.0194    3.5984 H         1 UNK         0.3121 
    106 H106       28.6813   30.6866    4.2698 H         1 UNK         0.0774 
    107 H107       26.9406   32.4601    4.3574 H         1 UNK         0.0815 
    108 H108       25.8013   31.4061    3.5286 H         1 UNK         0.0815 
    109 H109       26.3849   30.9917    5.1400 H         1 UNK         0.0815 
    110 H110       29.7760   29.8587    2.0944 H         1 UNK         0.2987 
    111 H111       29.8644   32.2504    0.2931 H         1 UNK         0.0949 
    112 H112       30.7301   30.7040   -1.4657 H         1 UNK         0.0806 
    113 H113       30.5434   29.3260   -0.3894 H         1 UNK         0.0806 
    114 H114       29.1224   30.1914   -0.9750 H         1 UNK         0.0806 
    115 H115       31.9746   33.0383   -0.0065 H         1 UNK         0.3010 
    116 H116       34.0396   33.6546    0.5799 H         1 UNK         0.0829 
    117 H117       34.6045   31.6271   -0.7519 H         1 UNK         0.0813 
    118 H118       35.7879   31.8862    0.5181 H         1 UNK         0.0813 
    119 H119       34.5667   30.6357    0.7033 H         1 UNK         0.0813 
    120 H120       32.3860   33.9457    2.6684 H         1 UNK         0.3038 
    121 H121       32.1292   34.2396    4.8526 H         1 UNK         0.0769 
    122 H122       34.0961   34.7011    6.2613 H         1 UNK         0.0811 
    123 H123       34.3357   35.4188    4.6774 H         1 UNK         0.0811 
    124 H124       35.1671   33.9243    5.1067 H         1 UNK         0.0811 
    125 H125       31.6463   31.7020    3.8917 H         1 UNK         0.3204 
    126 H126       31.0727   29.6537    4.4219 H         1 UNK         0.0748 
    127 H127       30.8003   28.8842    6.7414 H         1 UNK         0.0771 
    128 H128       31.7440   30.2342    7.3514 H         1 UNK         0.0771 
    129 H129       30.1803   30.5198    6.5870 H         1 UNK         0.0771 
    130 H130       33.2764   29.9103    3.1442 H         1 UNK         0.2980 
    131 H131       35.2730   29.1841    2.5528 H         1 UNK         0.0545 
    132 H132       37.1272   30.5193    5.3502 H         1 UNK         0.3459 
    133 H133       35.8618   31.0060    4.2342 H         1 UNK         0.3459 
    134 H134       35.7622   26.6832    3.0506 H         1 UNK         0.0616 
    135 H135       34.2450   26.6480    3.9118 H         1 UNK         0.0616 
    136 H136       31.6107   26.8865    1.1006 H         1 UNK         0.0634 
    137 H137       31.9544   27.5394    2.6783 H         1 UNK         0.0634 
@<TRIPOS>BOND
     1    1    2 1    
     2    1   72 1    
     3    1   73 1    
     4    1   74 1    
     5    2    3 2    
     6    2    4 am   BACKBONE|DICT|INTERRES
     7    4    5 1    
     8    4   75 1    
     9    5    6 1    
    10    5   35 1    
    11    5   76 1    
    12    6    7 1    
    13    6   77 1    
    14    6   78 1    
    15    7    8 1    
    16    8    9 1    
    17    8   79 1    
    18    8   80 1    
    19    9   10 ar   
    20    9   14 ar   
    21   10   11 ar   
    22   10   81 1    
    23   11   12 ar   
    24   11   71 1    
    25   12   13 ar   
    26   12   82 1    
    27   13   14 ar   
    28   13   15 1    
    29   14   83 1    
    30   15   16 1    
    31   15   84 1    
    32   15   85 1    
    33   16   17 1    
    34   17   18 1    
    35   17   86 1    
    36   17   87 1    
    37   18   19 1    
    38   18   37 1    
    39   18   88 1    
    40   19   20 am   BACKBONE|DICT|INTERRES
    41   19   89 1    
    42   20   21 2    
    43   20   22 1    
    44   22   23 1    
    45   22   24 1    
    46   22   90 1    
    47   23   91 1    
    48   23   92 1    
    49   23   93 1    
    50   24   25 am   BACKBONE|DICT|INTERRES
    51   24   94 1    
    52   25   26 2    
    53   25   27 1    
    54   27   28 1    
    55   27   29 1    
    56   27   95 1    
    57   28   96 1    
    58   28   97 1    
    59   28   98 1    
    60   29   30 am   BACKBONE|DICT|INTERRES
    61   29   99 1    
    62   30   31 2    
    63   30   32 1    
    64   32   33 1    
    65   32   34 1    
    66   32  100 1    
    67   33  101 1    
    68   33  102 1    
    69   33  103 1    
    70   34   35 am   BACKBONE|DICT|INTERRES
    71   34  104 1    
    72   35   36 2    
    73   37   38 2    
    74   37   39 am   BACKBONE|DICT|INTERRES
    75   39   40 1    
    76   39  105 1    
    77   40   41 1    
    78   40   42 1    
    79   40  106 1    
    80   41  107 1    
    81   41  108 1    
    82   41  109 1    
    83   42   43 2    
    84   42   44 am   BACKBONE|DICT|INTERRES
    85   44   45 1    
    86   44  110 1    
    87   45   46 1    
    88   45   47 1    
    89   45  111 1    
    90   46  112 1    
    91   46  113 1    
    92   46  114 1    
    93   47   48 2    
    94   47   49 am   BACKBONE|DICT|INTERRES
    95   49   50 1    
    96   49  115 1    
    97   50   51 1    
    98   50   52 1    
    99   50  116 1    
   100   51  117 1    
   101   51  118 1    
   102   51  119 1    
   103   52   53 2    
   104   52   54 am   BACKBONE|DICT|INTERRES
   105   54   55 1    
   106   54  120 1    
   107   55   56 1    
   108   55   57 1    
   109   55  121 1    
   110   56  122 1    
   111   56  123 1    
   112   56  124 1    
   113   57   58 2    
   114   57   59 am   BACKBONE|DICT|INTERRES
   115   59   60 1    
   116   59  125 1    
   117   60   61 1    
   118   60   62 1    
   119   60  126 1    
   120   61  127 1    
   121   61  128 1    
   122   61  129 1    
   123   62   63 2    
   124   62   64 am   BACKBONE|DICT|INTERRES
   125   64   65 1    
   126   64  130 1    
   127   65   66 1    
   128   65   69 1    
   129   65  131 1    
   130   66   67 am   BACKBONE|DICT|INTERRES
   131   66   68 2    
   132   67  132 1    
   133   67  133 1    
   134   69   70 1    
   135   69  134 1    
   136   69  135 1    
   137   70   71 1    
   138   71  136 1    
   139   71  137 1    
@<TRIPOS>SUBSTRUCTURE
     1 UNK         1 GROUP             0       ****    0 ROOT    
