@<TRIPOS>MOLECULE
3R136
137   139    1
SMALL
USER_CHARGES


@<TRIPOS>ATOM
      1 CA         27.2059   21.3067    3.0262 C.3       0 UNK        -0.1979 
      2 C          27.3350   20.7387    1.6215 C.2       0 UNK         0.4864 
      3 O          26.3900   20.1305    1.1177 O.2       0 UNK        -0.5359 
      4 N          28.4955   20.9397    0.9820 N.am      1 UNK        -0.4318 
      5 CA         28.7662   20.5428   -0.4055 C.3       1 UNK         0.0824 
      6 C6         30.2881   20.4810   -0.7020 C.3       12 UNK        -0.0944 
      7 S7         31.1806   22.0478   -0.3734 S.3       12 UNK        -0.2672 
      8 C8         32.2742   21.6121    1.0163 C.3       12 UNK         0.0333 
      9 C9         32.1313   22.6092    2.1554 C.ar      12 UNK        -0.0807 
     10 C10        32.9330   23.7541    2.1984 C.ar      12 UNK        -0.0894 
     11 C11        32.8248   24.6587    3.2601 C.ar      12 UNK        -0.0804 
     12 C12        31.8995   24.4108    4.2799 C.ar      12 UNK        -0.0824 
     13 C13        31.0685   23.2876    4.2295 C.ar      12 UNK        -0.0762 
     14 C14        31.2029   22.3810    3.1743 C.ar      12 UNK        -0.0782 
     15 C15        30.0219   23.0434    5.3091 C.3       12 UNK         0.0230 
     16 S16        28.8631   24.4363    5.5470 S.3       12 UNK        -0.2608 
     17 C17        28.3917   24.9669    3.8575 C.3       12 UNK        -0.0989 
     18 CA         28.7330   26.4614    3.6121 C.3       5 UNK         0.0716 
     19 N          28.8259   26.7820    2.1824 N.am      5 UNK        -0.4135 
     20 C          29.3332   27.9300    1.7021 C.2       4 UNK         0.5031 
     21 O          29.7902   28.8270    2.4083 O.2       4 UNK        -0.5229 
     22 CA         29.2712   28.1523    0.1799 C.3       4 UNK         0.0329 
     23 CB         30.4904   27.5095   -0.4996 C.3       4 UNK        -0.2001 
     24 N          28.0474   27.6436   -0.4422 N.am      4 UNK        -0.4303 
     25 C          26.7923   27.9298   -0.0657 C.2       3 UNK         0.5044 
     26 O          26.5157   28.7598    0.7990 O.2       3 UNK        -0.5152 
     27 CA         25.6508   27.1205   -0.7130 C.3       3 UNK         0.0319 
     28 CB         24.8549   28.0056   -1.6852 C.3       3 UNK        -0.2001 
     29 N          26.0732   25.8972   -1.4096 N.am      3 UNK        -0.4354 
     30 C          26.7381   24.8686   -0.8636 C.2       2 UNK         0.4964 
     31 O          27.0880   24.8235    0.3223 O.2       2 UNK        -0.5047 
     32 CA         27.1358   23.7415   -1.8256 C.3       2 UNK         0.0288 
     33 CB         28.1102   24.2519   -2.9093 C.3       2 UNK        -0.2113 
     34 N          27.7710   22.6914   -1.0431 N.am      2 UNK        -0.4145 
     35 C          28.0290   21.4365   -1.4273 C.2       1 UNK         0.5006 
     36 O          27.7183   20.9762   -2.5278 O.2       1 UNK        -0.5103 
     37 C          27.7525   27.3992    4.3548 C.2       5 UNK         0.5055 
     38 O          28.0323   27.7996    5.4858 O.2       5 UNK        -0.5220 
     39 N          26.6301   27.7435    3.7050 N.am      6 UNK        -0.4450 
     40 CA         25.6246   28.6678    4.2332 C.3       6 UNK         0.0367 
     41 CB         24.2994   28.4849    3.4751 C.3       6 UNK        -0.1929 
     42 C          26.0952   30.1301    4.1733 C.2       6 UNK         0.5070 
     43 O          25.8241   30.8882    5.1048 O.2       6 UNK        -0.5237 
     44 N          26.7939   30.4964    3.0890 N.am      7 UNK        -0.4739 
     45 CA         27.4068   31.8129    2.8956 C.3       7 UNK         0.0276 
     46 CB         27.8955   31.9441    1.4442 C.3       7 UNK        -0.1927 
     47 C          28.5541   32.0822    3.8846 C.2       7 UNK         0.5013 
     48 O          28.6216   33.1798    4.4405 O.2       7 UNK        -0.5193 
     49 N          29.4075   31.0685    4.0959 N.am      8 UNK        -0.4253 
     50 CA         30.5699   31.0526    4.9865 C.3       8 UNK         0.0242 
     51 CB         30.1209   31.0905    6.4652 C.3       8 UNK        -0.2000 
     52 C          31.6070   32.1262    4.6001 C.2       8 UNK         0.4948 
     53 O          31.8780   32.2944    3.4077 O.2       8 UNK        -0.5275 
     54 N          32.1915   32.8061    5.5994 N.am      9 UNK        -0.4246 
     55 CA         33.2654   33.8004    5.4854 C.3       9 UNK         0.0261 
     56 CB         32.7613   35.0845    4.7861 C.3       9 UNK        -0.1959 
     57 C          34.5164   33.1763    4.8406 C.2       9 UNK         0.5033 
     58 O          35.2021   32.3971    5.5044 O.2       9 UNK        -0.5390 
     59 N          34.7708   33.4915    3.5636 N.am      10 UNK        -0.4215 
     60 CA         35.8145   32.8695    2.7448 C.3       10 UNK         0.0240 
     61 CB         36.0152   33.6979    1.4652 C.3       10 UNK        -0.1982 
     62 C          35.5176   31.3983    2.3933 C.2       10 UNK         0.4970 
     63 O          36.4622   30.6430    2.1614 O.2       10 UNK        -0.4916 
     64 N          34.2300   31.0208    2.3633 N.am      11 UNK        -0.4279 
     65 CA         33.7300   29.6652    2.0861 C.3       11 UNK         0.1003 
     66 C          34.0659   29.1320    0.6580 C.2       11 UNK         0.5709 
     67 N          34.2032   30.0002   -0.3378 N.am      11 UNK        -0.7358 
     68 O          34.1912   27.9308    0.4349 O.2       11 UNK        -0.4999 
     69 C69        34.0715   28.6812    3.2431 C.3       12 UNK        -0.0954 
     70 S70        32.7705   27.4292    3.4921 S.3       12 UNK        -0.2268 
     71 C71        33.7223   25.8888    3.3100 C.3       12 UNK         0.0203 
     72 H72        27.2852   20.5099    3.7652 H         1 UNK         0.0888 
     73 H73        27.9768   22.0466    3.2313 H         1 UNK         0.0888 
     74 H74        26.2383   21.7926    3.1492 H         1 UNK         0.0888 
     75 H75        29.2391   21.4537    1.4299 H         1 UNK         0.3017 
     76 H76        28.3698   19.5340   -0.5419 H         1 UNK         0.0873 
     77 H77        30.7332   19.6697   -0.1253 H         1 UNK         0.0745 
     78 H78        30.4588   20.2082   -1.7454 H         1 UNK         0.0745 
     79 H79        32.0659   20.6068    1.3837 H         1 UNK         0.0705 
     80 H80        33.3055   21.5930    0.6605 H         1 UNK         0.0705 
     81 H81        33.6477   23.9347    1.4068 H         1 UNK         0.1334 
     82 H82        31.8077   25.1071    5.1024 H         1 UNK         0.1417 
     83 H83        30.5873   21.4930    3.1478 H         1 UNK         0.1562 
     84 H84        30.5321   22.8519    6.2540 H         1 UNK         0.0748 
     85 H85        29.4429   22.1446    5.0949 H         1 UNK         0.0748 
     86 H86        27.3284   24.7719    3.7037 H         1 UNK         0.0940 
     87 H87        28.9080   24.3455    3.1260 H         1 UNK         0.0940 
     88 H88        29.7268   26.6485    4.0259 H         1 UNK         0.0703 
     89 H89        28.4344   26.1094    1.5336 H         1 UNK         0.3081 
     90 H90        29.3053   29.2282    0.0002 H         1 UNK         0.0719 
     91 H91        30.4855   26.4231   -0.3994 H         1 UNK         0.0809 
     92 H92        30.5288   27.7505   -1.5620 H         1 UNK         0.0809 
     93 H93        31.4177   27.8700   -0.0538 H         1 UNK         0.0809 
     94 H94        28.1666   26.9538   -1.1685 H         1 UNK         0.2990 
     95 H95        24.9834   26.8177    0.0964 H         1 UNK         0.0690 
     96 H96        23.9782   27.4848   -2.0709 H         1 UNK         0.0788 
     97 H97        25.4624   28.3193   -2.5351 H         1 UNK         0.0788 
     98 H98        24.4980   28.9094   -1.1887 H         1 UNK         0.0788 
     99 H99        25.8419   25.8476   -2.3919 H         1 UNK         0.2993 
    100 H100       26.2302   23.3438   -2.2883 H         1 UNK         0.0949 
    101 H101       28.4007   23.4539   -3.5926 H         1 UNK         0.0767 
    102 H102       27.6609   25.0372   -3.5179 H         1 UNK         0.0767 
    103 H103       29.0227   24.6570   -2.4693 H         1 UNK         0.0767 
    104 H104       28.0111   22.9797   -0.1028 H         1 UNK         0.3013 
    105 H105       26.5016   27.4311    2.7531 H         1 UNK         0.3121 
    106 H106       25.4480   28.4188    5.2821 H         1 UNK         0.0774 
    107 H107       24.3968   28.7272    2.4165 H         1 UNK         0.0815 
    108 H108       23.5262   29.1356    3.8857 H         1 UNK         0.0815 
    109 H109       23.9348   27.4607    3.5535 H         1 UNK         0.0815 
    110 H110       26.8988   29.8235    2.3338 H         1 UNK         0.2987 
    111 H111       26.6362   32.5679    3.0663 H         1 UNK         0.0949 
    112 H112       28.6790   31.2213    1.2164 H         1 UNK         0.0806 
    113 H113       27.0819   31.7911    0.7348 H         1 UNK         0.0806 
    114 H114       28.3065   32.9377    1.2608 H         1 UNK         0.0806 
    115 H115       29.3134   30.2378    3.5143 H         1 UNK         0.3010 
    116 H116       31.0583   30.0920    4.8143 H         1 UNK         0.0829 
    117 H117       29.6774   32.0499    6.7348 H         1 UNK         0.0813 
    118 H118       29.3762   30.3185    6.6626 H         1 UNK         0.0813 
    119 H119       30.9550   30.9015    7.1418 H         1 UNK         0.0813 
    120 H120       31.9161   32.5740    6.5434 H         1 UNK         0.3038 
    121 H121       33.5497   34.0727    6.5030 H         1 UNK         0.0769 
    122 H122       33.5550   35.8293    4.7119 H         1 UNK         0.0811 
    123 H123       32.3843   34.8981    3.7803 H         1 UNK         0.0811 
    124 H124       31.9505   35.5403    5.3546 H         1 UNK         0.0811 
    125 H125       34.1346   34.1210    3.0955 H         1 UNK         0.3204 
    126 H126       36.7469   32.8880    3.3134 H         1 UNK         0.0748 
    127 H127       36.8051   33.2720    0.8446 H         1 UNK         0.0771 
    128 H128       35.1087   33.7343    0.8595 H         1 UNK         0.0771 
    129 H129       36.3060   34.7227    1.6975 H         1 UNK         0.0771 
    130 H130       33.5085   31.6988    2.5941 H         1 UNK         0.2980 
    131 H131       32.6461   29.7893    2.0762 H         1 UNK         0.0545 
    132 H132       34.4189   29.6594   -1.2610 H         1 UNK         0.3459 
    133 H133       34.0998   30.9885   -0.1743 H         1 UNK         0.3459 
    134 H134       35.0443   28.2116    3.0875 H         1 UNK         0.0616 
    135 H135       34.1534   29.2233    4.1867 H         1 UNK         0.0616 
    136 H136       34.4154   25.7943    4.1468 H         1 UNK         0.0634 
    137 H137       34.3283   25.9547    2.4051 H         1 UNK         0.0634 
@<TRIPOS>BOND
     1    1    2 1    
     2    1   72 1    
     3    1   73 1    
     4    1   74 1    
     5    2    3 2    
     6    2    4 am   BACKBONE|DICT|INTERRES
     7    4    5 1    
     8    4   75 1    
     9    5    6 1    
    10    5   35 1    
    11    5   76 1    
    12    6    7 1    
    13    6   77 1    
    14    6   78 1    
    15    7    8 1    
    16    8    9 1    
    17    8   79 1    
    18    8   80 1    
    19    9   10 ar   
    20    9   14 ar   
    21   10   11 ar   
    22   10   81 1    
    23   11   12 ar   
    24   11   71 1    
    25   12   13 ar   
    26   12   82 1    
    27   13   14 ar   
    28   13   15 1    
    29   14   83 1    
    30   15   16 1    
    31   15   84 1    
    32   15   85 1    
    33   16   17 1    
    34   17   18 1    
    35   17   86 1    
    36   17   87 1    
    37   18   19 1    
    38   18   37 1    
    39   18   88 1    
    40   19   20 am   BACKBONE|DICT|INTERRES
    41   19   89 1    
    42   20   21 2    
    43   20   22 1    
    44   22   23 1    
    45   22   24 1    
    46   22   90 1    
    47   23   91 1    
    48   23   92 1    
    49   23   93 1    
    50   24   25 am   BACKBONE|DICT|INTERRES
    51   24   94 1    
    52   25   26 2    
    53   25   27 1    
    54   27   28 1    
    55   27   29 1    
    56   27   95 1    
    57   28   96 1    
    58   28   97 1    
    59   28   98 1    
    60   29   30 am   BACKBONE|DICT|INTERRES
    61   29   99 1    
    62   30   31 2    
    63   30   32 1    
    64   32   33 1    
    65   32   34 1    
    66   32  100 1    
    67   33  101 1    
    68   33  102 1    
    69   33  103 1    
    70   34   35 am   BACKBONE|DICT|INTERRES
    71   34  104 1    
    72   35   36 2    
    73   37   38 2    
    74   37   39 am   BACKBONE|DICT|INTERRES
    75   39   40 1    
    76   39  105 1    
    77   40   41 1    
    78   40   42 1    
    79   40  106 1    
    80   41  107 1    
    81   41  108 1    
    82   41  109 1    
    83   42   43 2    
    84   42   44 am   BACKBONE|DICT|INTERRES
    85   44   45 1    
    86   44  110 1    
    87   45   46 1    
    88   45   47 1    
    89   45  111 1    
    90   46  112 1    
    91   46  113 1    
    92   46  114 1    
    93   47   48 2    
    94   47   49 am   BACKBONE|DICT|INTERRES
    95   49   50 1    
    96   49  115 1    
    97   50   51 1    
    98   50   52 1    
    99   50  116 1    
   100   51  117 1    
   101   51  118 1    
   102   51  119 1    
   103   52   53 2    
   104   52   54 am   BACKBONE|DICT|INTERRES
   105   54   55 1    
   106   54  120 1    
   107   55   56 1    
   108   55   57 1    
   109   55  121 1    
   110   56  122 1    
   111   56  123 1    
   112   56  124 1    
   113   57   58 2    
   114   57   59 am   BACKBONE|DICT|INTERRES
   115   59   60 1    
   116   59  125 1    
   117   60   61 1    
   118   60   62 1    
   119   60  126 1    
   120   61  127 1    
   121   61  128 1    
   122   61  129 1    
   123   62   63 2    
   124   62   64 am   BACKBONE|DICT|INTERRES
   125   64   65 1    
   126   64  130 1    
   127   65   66 1    
   128   65   69 1    
   129   65  131 1    
   130   66   67 am   BACKBONE|DICT|INTERRES
   131   66   68 2    
   132   67  132 1    
   133   67  133 1    
   134   69   70 1    
   135   69  134 1    
   136   69  135 1    
   137   70   71 1    
   138   71  136 1    
   139   71  137 1    
@<TRIPOS>SUBSTRUCTURE
     1 UNK         1 GROUP             0       ****    0 ROOT    
