@<TRIPOS>MOLECULE
3R136
137   139    1
SMALL
USER_CHARGES


@<TRIPOS>ATOM
      1 CA         31.8444   21.4056    2.3853 C.3       0 UNK        -0.1979 
      2 C          30.9586   21.1829    1.1702 C.2       0 UNK         0.4864 
      3 O          30.5295   20.0548    0.9254 O.2       0 UNK        -0.5359 
      4 N          30.6852   22.2482    0.4027 N.am      1 UNK        -0.4318 
      5 CA         29.8705   22.2017   -0.8186 C.3       1 UNK         0.0824 
      6 C6         30.1699   23.4024   -1.7613 C.3       12 UNK        -0.0944 
      7 S7         29.2912   24.9670   -1.3970 S.3       12 UNK        -0.2672 
      8 C8         30.5692   25.9571   -0.5584 C.3       12 UNK         0.0333 
      9 C9         30.8589   25.4841    0.8616 C.ar      12 UNK        -0.0807 
     10 C10        32.1797   25.3470    1.2969 C.ar      12 UNK        -0.0894 
     11 C11        32.4562   24.9579    2.6099 C.ar      12 UNK        -0.0804 
     12 C12        31.3996   24.6977    3.4879 C.ar      12 UNK        -0.0824 
     13 C13        30.0712   24.8246    3.0720 C.ar      12 UNK        -0.0762 
     14 C14        29.8136   25.2204    1.7531 C.ar      12 UNK        -0.0782 
     15 C15        28.9606   24.4870    4.0705 C.3       12 UNK         0.0230 
     16 S16        27.2871   25.0703    3.6259 S.3       12 UNK        -0.2608 
     17 C17        27.3228   26.8150    4.1526 C.3       12 UNK        -0.0989 
     18 CA         27.8328   27.7854    3.0598 C.3       5 UNK         0.0716 
     19 N          27.1467   27.6139    1.7677 N.am      5 UNK        -0.4135 
     20 C          27.5147   28.2208    0.6306 C.2       4 UNK         0.5031 
     21 O          28.4643   29.0040    0.5647 O.2       4 UNK        -0.5229 
     22 CA         26.6653   27.9437   -0.6187 C.3       4 UNK         0.0329 
     23 CB         27.3507   28.4000   -1.9216 C.3       4 UNK        -0.2001 
     24 N          26.2949   26.5303   -0.7403 N.am      4 UNK        -0.4303 
     25 C          25.0839   26.1057   -1.1274 C.2       3 UNK         0.5044 
     26 O          24.1086   26.8465   -1.2598 O.2       3 UNK        -0.5152 
     27 CA         24.9270   24.6150   -1.4728 C.3       3 UNK         0.0319 
     28 CB         25.2063   24.3890   -2.9676 C.3       3 UNK        -0.2001 
     29 N          25.7801   23.7173   -0.6952 N.am      3 UNK        -0.4354 
     30 C          25.6008   23.4025    0.5925 C.2       2 UNK         0.4964 
     31 O          24.7209   23.9017    1.2938 O.2       2 UNK        -0.5047 
     32 CA         26.5430   22.3489    1.2106 C.3       2 UNK         0.0288 
     33 CB         25.9166   20.9422    1.1415 C.3       2 UNK        -0.2113 
     34 N          27.9175   22.3518    0.6833 N.am      2 UNK        -0.4145 
     35 C          28.3606   22.0196   -0.5411 C.2       1 UNK         0.5006 
     36 O          27.6281   21.6337   -1.4534 O.2       1 UNK        -0.5103 
     37 C          27.7996   29.2387    3.5828 C.2       5 UNK         0.5055 
     38 O          28.7163   29.6433    4.2966 O.2       5 UNK        -0.5220 
     39 N          26.7608   30.0011    3.2086 N.am      6 UNK        -0.4450 
     40 CA         26.6261   31.4275    3.5130 C.3       6 UNK         0.0367 
     41 CB         25.1781   31.8691    3.2459 C.3       6 UNK        -0.1929 
     42 C          27.6110   32.3113    2.7248 C.2       6 UNK         0.5070 
     43 O          27.9977   33.3674    3.2255 O.2       6 UNK        -0.5237 
     44 N          27.9957   31.8780    1.5151 N.am      7 UNK        -0.4739 
     45 CA         28.9872   32.5579    0.6782 C.3       7 UNK         0.0276 
     46 CB         28.7303   32.2313   -0.8011 C.3       7 UNK        -0.1927 
     47 C          30.4173   32.1656    1.0752 C.2       7 UNK         0.5013 
     48 O          31.3105   33.0139    1.0383 O.2       7 UNK        -0.5193 
     49 N          30.6108   30.8978    1.4659 N.am      8 UNK        -0.4253 
     50 CA         31.8748   30.3337    1.9419 C.3       8 UNK         0.0242 
     51 CB         31.8049   28.8006    1.8433 C.3       8 UNK        -0.2000 
     52 C          32.2314   30.8149    3.3619 C.2       8 UNK         0.4948 
     53 O          32.3091   30.0108    4.2920 O.2       8 UNK        -0.5275 
     54 N          32.4771   32.1240    3.5038 N.am      9 UNK        -0.4246 
     55 CA         32.8366   32.7991    4.7571 C.3       9 UNK         0.0261 
     56 CB         32.9179   34.3136    4.5074 C.3       9 UNK        -0.1959 
     57 C          34.1365   32.2870    5.4082 C.2       9 UNK         0.5033 
     58 O          34.2871   32.4073    6.6246 O.2       9 UNK        -0.5390 
     59 N          35.0376   31.7106    4.5999 N.am      10 UNK        -0.4215 
     60 CA         36.2430   31.0140    5.0543 C.3       10 UNK         0.0240 
     61 CB         37.1832   30.7963    3.8575 C.3       10 UNK        -0.1982 
     62 C          35.9401   29.6726    5.7496 C.2       10 UNK         0.4970 
     63 O          36.7124   29.2665    6.6190 O.2       10 UNK        -0.4916 
     64 N          34.8410   29.0136    5.3604 N.am      11 UNK        -0.4279 
     65 CA         34.3425   27.7798    5.9813 C.3       11 UNK         0.1003 
     66 C          33.4197   28.0946    7.1864 C.2       11 UNK         0.5709 
     67 N          32.5006   29.0441    7.0555 N.am      11 UNK        -0.7358 
     68 O          33.5420   27.4793    8.2428 O.2       11 UNK        -0.4999 
     69 C69        33.6067   26.8692    4.9655 C.3       12 UNK        -0.0954 
     70 S70        34.6419   26.3965    3.5408 S.3       12 UNK        -0.2268 
     71 C71        33.8975   24.8021    3.0762 C.3       12 UNK         0.0203 
     72 H72        32.3574   20.4837    2.6581 H         1 UNK         0.0888 
     73 H73        32.6040   22.1597    2.1849 H         1 UNK         0.0888 
     74 H74        31.2459   21.7269    3.2370 H         1 UNK         0.0888 
     75 H75        31.0501   23.1577    0.6555 H         1 UNK         0.3017 
     76 H76        30.1776   21.3034   -1.3594 H         1 UNK         0.0873 
     77 H77        29.8863   23.1244   -2.7780 H         1 UNK         0.0745 
     78 H78        31.2440   23.5878   -1.8108 H         1 UNK         0.0745 
     79 H79        31.4751   25.9613   -1.1664 H         1 UNK         0.0705 
     80 H80        30.2259   26.9910   -0.5129 H         1 UNK         0.0705 
     81 H81        32.9973   25.5584    0.6210 H         1 UNK         0.1334 
     82 H82        31.6135   24.3863    4.5013 H         1 UNK         0.1417 
     83 H83        28.7974   25.3287    1.4059 H         1 UNK         0.1562 
     84 H84        29.2193   24.8716    5.0582 H         1 UNK         0.0748 
     85 H85        28.9193   23.4015    4.1690 H         1 UNK         0.0748 
     86 H86        27.9326   26.9003    5.0545 H         1 UNK         0.0940 
     87 H87        26.3080   27.0833    4.4531 H         1 UNK         0.0940 
     88 H88        28.8848   27.5569    2.8868 H         1 UNK         0.0703 
     89 H89        26.3604   26.9795    1.7548 H         1 UNK         0.3081 
     90 H90        25.7676   28.5516   -0.4899 H         1 UNK         0.0719 
     91 H91        28.3028   27.8913   -2.0753 H         1 UNK         0.0809 
     92 H92        26.7228   28.2041   -2.7908 H         1 UNK         0.0809 
     93 H93        27.5487   29.4714   -1.9079 H         1 UNK         0.0809 
     94 H94        27.0459   25.8560   -0.6689 H         1 UNK         0.2990 
     95 H95        23.8876   24.3422   -1.2779 H         1 UNK         0.0690 
     96 H96        25.0103   23.3560   -3.2561 H         1 UNK         0.0788 
     97 H97        26.2421   24.6176   -3.2228 H         1 UNK         0.0788 
     98 H98        24.5695   25.0236   -3.5857 H         1 UNK         0.0788 
     99 H99        26.4930   23.2022   -1.2022 H         1 UNK         0.2993 
    100 H100       26.6341   22.6019    2.2671 H         1 UNK         0.0949 
    101 H101       24.9508   20.9229    1.6481 H         1 UNK         0.0767 
    102 H102       25.7475   20.6184    0.1142 H         1 UNK         0.0767 
    103 H103       26.5522   20.2014    1.6270 H         1 UNK         0.0767 
    104 H104       28.6174   22.6802    1.3328 H         1 UNK         0.3013 
    105 H105       26.0368   29.5842    2.6421 H         1 UNK         0.3121 
    106 H106       26.8354   31.5700    4.5756 H         1 UNK         0.0774 
    107 H107       24.9015   31.7409    2.1987 H         1 UNK         0.0815 
    108 H108       25.0418   32.9234    3.4911 H         1 UNK         0.0815 
    109 H109       24.4712   31.3039    3.8536 H         1 UNK         0.0815 
    110 H110       27.6793   30.9725    1.1940 H         1 UNK         0.2987 
    111 H111       28.8863   33.6380    0.8081 H         1 UNK         0.0949 
    112 H112       28.8954   31.1757   -1.0161 H         1 UNK         0.0806 
    113 H113       27.7108   32.4815   -1.0948 H         1 UNK         0.0806 
    114 H114       29.4026   32.8001   -1.4447 H         1 UNK         0.0806 
    115 H115       29.8222   30.2610    1.4200 H         1 UNK         0.3010 
    116 H116       32.6722   30.6697    1.2757 H         1 UNK         0.0829 
    117 H117       31.5841   28.4803    0.8262 H         1 UNK         0.0813 
    118 H118       32.7550   28.3465    2.1256 H         1 UNK         0.0813 
    119 H119       31.0406   28.3859    2.5005 H         1 UNK         0.0813 
    120 H120       32.3339   32.7104    2.6860 H         1 UNK         0.3038 
    121 H121       32.0283   32.6119    5.4672 H         1 UNK         0.0769 
    122 H122       33.6905   34.5615    3.7785 H         1 UNK         0.0811 
    123 H123       33.1530   34.8498    5.4280 H         1 UNK         0.0811 
    124 H124       31.9698   34.7062    4.1390 H         1 UNK         0.0811 
    125 H125       34.8378   31.6838    3.6109 H         1 UNK         0.3204 
    126 H126       36.7528   31.6534    5.7783 H         1 UNK         0.0748 
    127 H127       38.1058   30.3058    4.1714 H         1 UNK         0.0771 
    128 H128       36.7254   30.1684    3.0918 H         1 UNK         0.0771 
    129 H129       37.4634   31.7428    3.3945 H         1 UNK         0.0771 
    130 H130       34.2056   29.4453    4.7008 H         1 UNK         0.2980 
    131 H131       35.1927   27.2120    6.3645 H         1 UNK         0.0545 
    132 H132       31.8957   29.2648    7.8295 H         1 UNK         0.3459 
    133 H133       32.3719   29.5002    6.1567 H         1 UNK         0.3459 
    134 H134       33.2744   25.9589    5.4671 H         1 UNK         0.0616 
    135 H135       32.7068   27.3545    4.5834 H         1 UNK         0.0616 
    136 H136       34.4934   24.3565    2.2784 H         1 UNK         0.0634 
    137 H137       33.9580   24.1139    3.9207 H         1 UNK         0.0634 
@<TRIPOS>BOND
     1    1    2 1    
     2    1   72 1    
     3    1   73 1    
     4    1   74 1    
     5    2    3 2    
     6    2    4 am   BACKBONE|DICT|INTERRES
     7    4    5 1    
     8    4   75 1    
     9    5    6 1    
    10    5   35 1    
    11    5   76 1    
    12    6    7 1    
    13    6   77 1    
    14    6   78 1    
    15    7    8 1    
    16    8    9 1    
    17    8   79 1    
    18    8   80 1    
    19    9   10 ar   
    20    9   14 ar   
    21   10   11 ar   
    22   10   81 1    
    23   11   12 ar   
    24   11   71 1    
    25   12   13 ar   
    26   12   82 1    
    27   13   14 ar   
    28   13   15 1    
    29   14   83 1    
    30   15   16 1    
    31   15   84 1    
    32   15   85 1    
    33   16   17 1    
    34   17   18 1    
    35   17   86 1    
    36   17   87 1    
    37   18   19 1    
    38   18   37 1    
    39   18   88 1    
    40   19   20 am   BACKBONE|DICT|INTERRES
    41   19   89 1    
    42   20   21 2    
    43   20   22 1    
    44   22   23 1    
    45   22   24 1    
    46   22   90 1    
    47   23   91 1    
    48   23   92 1    
    49   23   93 1    
    50   24   25 am   BACKBONE|DICT|INTERRES
    51   24   94 1    
    52   25   26 2    
    53   25   27 1    
    54   27   28 1    
    55   27   29 1    
    56   27   95 1    
    57   28   96 1    
    58   28   97 1    
    59   28   98 1    
    60   29   30 am   BACKBONE|DICT|INTERRES
    61   29   99 1    
    62   30   31 2    
    63   30   32 1    
    64   32   33 1    
    65   32   34 1    
    66   32  100 1    
    67   33  101 1    
    68   33  102 1    
    69   33  103 1    
    70   34   35 am   BACKBONE|DICT|INTERRES
    71   34  104 1    
    72   35   36 2    
    73   37   38 2    
    74   37   39 am   BACKBONE|DICT|INTERRES
    75   39   40 1    
    76   39  105 1    
    77   40   41 1    
    78   40   42 1    
    79   40  106 1    
    80   41  107 1    
    81   41  108 1    
    82   41  109 1    
    83   42   43 2    
    84   42   44 am   BACKBONE|DICT|INTERRES
    85   44   45 1    
    86   44  110 1    
    87   45   46 1    
    88   45   47 1    
    89   45  111 1    
    90   46  112 1    
    91   46  113 1    
    92   46  114 1    
    93   47   48 2    
    94   47   49 am   BACKBONE|DICT|INTERRES
    95   49   50 1    
    96   49  115 1    
    97   50   51 1    
    98   50   52 1    
    99   50  116 1    
   100   51  117 1    
   101   51  118 1    
   102   51  119 1    
   103   52   53 2    
   104   52   54 am   BACKBONE|DICT|INTERRES
   105   54   55 1    
   106   54  120 1    
   107   55   56 1    
   108   55   57 1    
   109   55  121 1    
   110   56  122 1    
   111   56  123 1    
   112   56  124 1    
   113   57   58 2    
   114   57   59 am   BACKBONE|DICT|INTERRES
   115   59   60 1    
   116   59  125 1    
   117   60   61 1    
   118   60   62 1    
   119   60  126 1    
   120   61  127 1    
   121   61  128 1    
   122   61  129 1    
   123   62   63 2    
   124   62   64 am   BACKBONE|DICT|INTERRES
   125   64   65 1    
   126   64  130 1    
   127   65   66 1    
   128   65   69 1    
   129   65  131 1    
   130   66   67 am   BACKBONE|DICT|INTERRES
   131   66   68 2    
   132   67  132 1    
   133   67  133 1    
   134   69   70 1    
   135   69  134 1    
   136   69  135 1    
   137   70   71 1    
   138   71  136 1    
   139   71  137 1    
@<TRIPOS>SUBSTRUCTURE
     1 UNK         1 GROUP             0       ****    0 ROOT    
