@<TRIPOS>MOLECULE
3R136
137   139    1
SMALL
USER_CHARGES


@<TRIPOS>ATOM
      1 CA         28.7823   18.9786   -0.5626 C.3       0 UNK        -0.1979 
      2 C          28.6249   20.4508   -0.9134 C.2       0 UNK         0.4864 
      3 O          27.8923   20.7807   -1.8469 O.2       0 UNK        -0.5359 
      4 N          29.3114   21.3335   -0.1742 N.am      1 UNK        -0.4318 
      5 CA         29.2893   22.7923   -0.3583 C.3       1 UNK         0.0824 
      6 C6         30.3962   23.5116    0.4555 C.3       12 UNK        -0.0944 
      7 S7         32.0625   22.8282    0.1595 S.3       12 UNK        -0.2672 
      8 C8         32.3509   21.8726    1.6851 C.3       12 UNK         0.0333 
      9 C9         32.7763   22.7712    2.8358 C.ar      12 UNK        -0.0807 
     10 C10        34.1191   23.1337    2.9696 C.ar      12 UNK        -0.0894 
     11 C11        34.5259   23.9764    4.0073 C.ar      12 UNK        -0.0804 
     12 C12        33.5811   24.4393    4.9288 C.ar      12 UNK        -0.0824 
     13 C13        32.2312   24.1030    4.7906 C.ar      12 UNK        -0.0762 
     14 C14        31.8368   23.2519    3.7545 C.ar      12 UNK        -0.0782 
     15 C15        31.2035   24.6811    5.7514 C.3       12 UNK         0.0230 
     16 S16        30.8785   26.4397    5.4008 S.3       12 UNK        -0.2608 
     17 C17        29.6654   26.3569    4.0365 C.3       12 UNK        -0.0989 
     18 CA         29.5210   27.6909    3.2541 C.3       5 UNK         0.0716 
     19 N          28.8457   27.4787    1.9698 N.am      5 UNK        -0.4135 
     20 C          28.8111   28.3740    0.9697 C.2       4 UNK         0.5031 
     21 O          29.3399   29.4829    1.0194 O.2       4 UNK        -0.5229 
     22 CA         27.9748   28.0081   -0.2688 C.3       4 UNK         0.0329 
     23 CB         28.8235   27.2282   -1.2836 C.3       4 UNK        -0.2001 
     24 N          26.7566   27.2607    0.0629 N.am      4 UNK        -0.4303 
     25 C          25.7746   27.7490    0.8388 C.2       3 UNK         0.5044 
     26 O          25.7929   28.8844    1.3121 O.2       3 UNK        -0.5152 
     27 CA         24.5968   26.8284    1.2014 C.3       3 UNK         0.0319 
     28 CB         23.3853   27.1379    0.3084 C.3       3 UNK        -0.2001 
     29 N          24.8897   25.3955    1.1371 N.am      3 UNK        -0.4354 
     30 C          25.8446   24.7511    1.8222 C.2       2 UNK         0.4964 
     31 O          26.6372   25.3060    2.5874 O.2       2 UNK        -0.5047 
     32 CA         25.9691   23.2335    1.5819 C.3       2 UNK         0.0288 
     33 CB         24.8628   22.6368    0.6804 C.3       2 UNK        -0.2113 
     34 N          27.2877   22.8700    1.0540 N.am      2 UNK        -0.4145 
     35 C          27.9106   23.3929   -0.0164 C.2       1 UNK         0.5006 
     36 O          27.4486   24.2968   -0.7162 O.2       1 UNK        -0.5103 
     37 C          28.8463   28.8054    4.0917 C.2       5 UNK         0.5055 
     38 O          29.5298   29.4694    4.8709 O.2       5 UNK        -0.5220 
     39 N          27.5323   29.0083    3.9122 N.am      6 UNK        -0.4450 
     40 CA         26.7786   30.0932    4.5425 C.3       6 UNK         0.0367 
     41 CB         25.3084   29.6717    4.7035 C.3       6 UNK        -0.1929 
     42 C          26.8847   31.4067    3.7485 C.2       6 UNK         0.5070 
     43 O          26.9624   32.4728    4.3596 O.2       6 UNK        -0.5237 
     44 N          26.8523   31.3147    2.4113 N.am      7 UNK        -0.4739 
     45 CA         26.8995   32.4553    1.4939 C.3       7 UNK         0.0276 
     46 CB         26.4558   32.0041    0.0928 C.3       7 UNK        -0.1927 
     47 C          28.2787   33.1321    1.4365 C.2       7 UNK         0.5013 
     48 O          28.3491   34.3611    1.4953 O.2       7 UNK        -0.5193 
     49 N          29.3426   32.3290    1.3122 N.am      8 UNK        -0.4253 
     50 CA         30.7332   32.7846    1.3303 C.3       8 UNK         0.0242 
     51 CB         31.5843   31.8061    0.4997 C.3       8 UNK        -0.2000 
     52 C          31.2582   32.8638    2.7720 C.2       8 UNK         0.4948 
     53 O          30.6016   32.3951    3.7050 O.2       8 UNK        -0.5275 
     54 N          32.4752   33.3981    2.9361 N.am      9 UNK        -0.4246 
     55 CA         33.2280   33.3983    4.1966 C.3       9 UNK         0.0261 
     56 CB         34.3069   34.4964    4.1338 C.3       9 UNK        -0.1959 
     57 C          33.8123   32.0006    4.5017 C.2       9 UNK         0.5033 
     58 O          35.0331   31.8514    4.5888 O.2       9 UNK        -0.5390 
     59 N          32.9121   31.0148    4.6288 N.am      10 UNK        -0.4215 
     60 CA         33.1173   29.5657    4.7225 C.3       10 UNK         0.0240 
     61 CB         34.0374   29.1893    5.9027 C.3       10 UNK        -0.1982 
     62 C          33.6019   28.9328    3.4039 C.2       10 UNK         0.4970 
     63 O          34.1747   29.6069    2.5450 O.2       10 UNK        -0.4916 
     64 N          33.3745   27.6196    3.2971 N.am      11 UNK        -0.4279 
     65 CA         33.8358   26.7377    2.2143 C.3       11 UNK         0.1003 
     66 C          33.2374   27.0832    0.8176 C.2       11 UNK         0.5709 
     67 N          33.8928   26.7144   -0.2760 N.am      11 UNK        -0.7358 
     68 O          32.1437   27.6309    0.7115 O.2       11 UNK        -0.4999 
     69 C69        35.3856   26.5218    2.2194 C.3       12 UNK        -0.0954 
     70 S70        36.1166   26.2455    3.8765 S.3       12 UNK        -0.2268 
     71 C71        35.9721   24.4408    4.0901 C.3       12 UNK         0.0203 
     72 H72        29.4662   18.8280    0.2725 H         1 UNK         0.0888 
     73 H73        27.8168   18.5527   -0.2912 H         1 UNK         0.0888 
     74 H74        29.1689   18.4283   -1.4200 H         1 UNK         0.0888 
     75 H75        29.9239   20.9936    0.5516 H         1 UNK         0.3017 
     76 H76        29.4707   22.9880   -1.4176 H         1 UNK         0.0873 
     77 H77        30.4310   24.5702    0.1927 H         1 UNK         0.0745 
     78 H78        30.1719   23.4819    1.5210 H         1 UNK         0.0745 
     79 H79        33.1313   21.1349    1.4919 H         1 UNK         0.0705 
     80 H80        31.4588   21.3044    1.9503 H         1 UNK         0.0705 
     81 H81        34.8419   22.7808    2.2464 H         1 UNK         0.1334 
     82 H82        33.8902   25.1047    5.7237 H         1 UNK         0.1417 
     83 H83        30.7959   22.9770    3.6578 H         1 UNK         0.1562 
     84 H84        31.5776   24.5902    6.7722 H         1 UNK         0.0748 
     85 H85        30.2689   24.1189    5.7181 H         1 UNK         0.0748 
     86 H86        28.7017   26.0298    4.4325 H         1 UNK         0.0940 
     87 H87        29.9930   25.5712    3.3540 H         1 UNK         0.0940 
     88 H88        30.5247   28.0471    3.0138 H         1 UNK         0.0703 
     89 H89        28.3109   26.6241    1.8770 H         1 UNK         0.3081 
     90 H90        27.6634   28.9404   -0.7433 H         1 UNK         0.0719 
     91 H91        28.2530   26.9854   -2.1801 H         1 UNK         0.0809 
     92 H92        29.6887   27.8152   -1.5955 H         1 UNK         0.0809 
     93 H93        29.2028   26.2980   -0.8631 H         1 UNK         0.0809 
     94 H94        26.6974   26.3043   -0.2695 H         1 UNK         0.2990 
     95 H95        24.3246   27.0544    2.2344 H         1 UNK         0.0690 
     96 H96        23.1243   28.1963    0.3572 H         1 UNK         0.0788 
     97 H97        22.5054   26.5758    0.6221 H         1 UNK         0.0788 
     98 H98        23.5834   26.8991   -0.7374 H         1 UNK         0.0788 
     99 H99        24.3164   24.8491    0.5105 H         1 UNK         0.2993 
    100 H100       25.8845   22.7677    2.5650 H         1 UNK         0.0949 
    101 H101       24.8976   23.0351   -0.3346 H         1 UNK         0.0767 
    102 H102       24.9670   21.5541    0.6060 H         1 UNK         0.0767 
    103 H103       23.8688   22.8298    1.0868 H         1 UNK         0.0767 
    104 H104       27.7719   22.1456    1.5643 H         1 UNK         0.3013 
    105 H105       27.0422   28.4572    3.2214 H         1 UNK         0.3121 
    106 H106       27.1824   30.2751    5.5411 H         1 UNK         0.0774 
    107 H107       24.8279   29.4874    3.7423 H         1 UNK         0.0815 
    108 H108       24.7354   30.4512    5.2075 H         1 UNK         0.0815 
    109 H109       25.2188   28.7657    5.3029 H         1 UNK         0.0815 
    110 H110       26.7029   30.4008    1.9921 H         1 UNK         0.2987 
    111 H111       26.1831   33.1993    1.8496 H         1 UNK         0.0949 
    112 H112       27.1276   31.2511   -0.3196 H         1 UNK         0.0806 
    113 H113       25.4513   31.5808    0.1117 H         1 UNK         0.0806 
    114 H114       26.4416   32.8450   -0.6019 H         1 UNK         0.0806 
    115 H115       29.2054   31.3198    1.3039 H         1 UNK         0.3010 
    116 H116       30.7981   33.7777    0.8805 H         1 UNK         0.0829 
    117 H117       31.1695   31.6665   -0.4988 H         1 UNK         0.0813 
    118 H118       32.6043   32.1710    0.3761 H         1 UNK         0.0813 
    119 H119       31.6491   30.8243    0.9724 H         1 UNK         0.0813 
    120 H120       32.9713   33.7305    2.1214 H         1 UNK         0.3038 
    121 H121       32.5477   33.6507    5.0131 H         1 UNK         0.0769 
    122 H122       35.0252   34.3132    3.3336 H         1 UNK         0.0811 
    123 H123       34.8664   34.5469    5.0689 H         1 UNK         0.0811 
    124 H124       33.8644   35.4791    3.9702 H         1 UNK         0.0811 
    125 H125       31.9421   31.2936    4.4876 H         1 UNK         0.3204 
    126 H126       32.1302   29.1544    4.9314 H         1 UNK         0.0748 
    127 H127       34.0391   28.1109    6.0668 H         1 UNK         0.0771 
    128 H128       35.0713   29.4862    5.7245 H         1 UNK         0.0771 
    129 H129       33.7062   29.6564    6.8300 H         1 UNK         0.0771 
    130 H130       32.8652   27.1550    4.0356 H         1 UNK         0.2980 
    131 H131       33.3688   25.7819    2.4362 H         1 UNK         0.0545 
    132 H132       33.4884   26.9184   -1.1757 H         1 UNK         0.3459 
    133 H133       34.7788   26.2392   -0.2196 H         1 UNK         0.3459 
    134 H134       35.6560   25.6772    1.5842 H         1 UNK         0.0616 
    135 H135       35.8812   27.3956    1.7933 H         1 UNK         0.0616 
    136 H136       36.3823   24.1648    5.0622 H         1 UNK         0.0634 
    137 H137       36.5892   23.9440    3.3398 H         1 UNK         0.0634 
@<TRIPOS>BOND
     1    1    2 1    
     2    1   72 1    
     3    1   73 1    
     4    1   74 1    
     5    2    3 2    
     6    2    4 am   BACKBONE|DICT|INTERRES
     7    4    5 1    
     8    4   75 1    
     9    5    6 1    
    10    5   35 1    
    11    5   76 1    
    12    6    7 1    
    13    6   77 1    
    14    6   78 1    
    15    7    8 1    
    16    8    9 1    
    17    8   79 1    
    18    8   80 1    
    19    9   10 ar   
    20    9   14 ar   
    21   10   11 ar   
    22   10   81 1    
    23   11   12 ar   
    24   11   71 1    
    25   12   13 ar   
    26   12   82 1    
    27   13   14 ar   
    28   13   15 1    
    29   14   83 1    
    30   15   16 1    
    31   15   84 1    
    32   15   85 1    
    33   16   17 1    
    34   17   18 1    
    35   17   86 1    
    36   17   87 1    
    37   18   19 1    
    38   18   37 1    
    39   18   88 1    
    40   19   20 am   BACKBONE|DICT|INTERRES
    41   19   89 1    
    42   20   21 2    
    43   20   22 1    
    44   22   23 1    
    45   22   24 1    
    46   22   90 1    
    47   23   91 1    
    48   23   92 1    
    49   23   93 1    
    50   24   25 am   BACKBONE|DICT|INTERRES
    51   24   94 1    
    52   25   26 2    
    53   25   27 1    
    54   27   28 1    
    55   27   29 1    
    56   27   95 1    
    57   28   96 1    
    58   28   97 1    
    59   28   98 1    
    60   29   30 am   BACKBONE|DICT|INTERRES
    61   29   99 1    
    62   30   31 2    
    63   30   32 1    
    64   32   33 1    
    65   32   34 1    
    66   32  100 1    
    67   33  101 1    
    68   33  102 1    
    69   33  103 1    
    70   34   35 am   BACKBONE|DICT|INTERRES
    71   34  104 1    
    72   35   36 2    
    73   37   38 2    
    74   37   39 am   BACKBONE|DICT|INTERRES
    75   39   40 1    
    76   39  105 1    
    77   40   41 1    
    78   40   42 1    
    79   40  106 1    
    80   41  107 1    
    81   41  108 1    
    82   41  109 1    
    83   42   43 2    
    84   42   44 am   BACKBONE|DICT|INTERRES
    85   44   45 1    
    86   44  110 1    
    87   45   46 1    
    88   45   47 1    
    89   45  111 1    
    90   46  112 1    
    91   46  113 1    
    92   46  114 1    
    93   47   48 2    
    94   47   49 am   BACKBONE|DICT|INTERRES
    95   49   50 1    
    96   49  115 1    
    97   50   51 1    
    98   50   52 1    
    99   50  116 1    
   100   51  117 1    
   101   51  118 1    
   102   51  119 1    
   103   52   53 2    
   104   52   54 am   BACKBONE|DICT|INTERRES
   105   54   55 1    
   106   54  120 1    
   107   55   56 1    
   108   55   57 1    
   109   55  121 1    
   110   56  122 1    
   111   56  123 1    
   112   56  124 1    
   113   57   58 2    
   114   57   59 am   BACKBONE|DICT|INTERRES
   115   59   60 1    
   116   59  125 1    
   117   60   61 1    
   118   60   62 1    
   119   60  126 1    
   120   61  127 1    
   121   61  128 1    
   122   61  129 1    
   123   62   63 2    
   124   62   64 am   BACKBONE|DICT|INTERRES
   125   64   65 1    
   126   64  130 1    
   127   65   66 1    
   128   65   69 1    
   129   65  131 1    
   130   66   67 am   BACKBONE|DICT|INTERRES
   131   66   68 2    
   132   67  132 1    
   133   67  133 1    
   134   69   70 1    
   135   69  134 1    
   136   69  135 1    
   137   70   71 1    
   138   71  136 1    
   139   71  137 1    
@<TRIPOS>SUBSTRUCTURE
     1 UNK         1 GROUP             0       ****    0 ROOT    
