@<TRIPOS>MOLECULE
3R136
137   139    1
SMALL
USER_CHARGES


@<TRIPOS>ATOM
      1 CA         26.2205   22.3824    0.7659 C.3       0 UNK        -0.1979 
      2 C          27.4401   21.7942    0.0745 C.2       0 UNK         0.4864 
      3 O          27.3291   21.3212   -1.0576 O.2       0 UNK        -0.5359 
      4 N          28.5940   21.7920    0.7543 N.am      1 UNK        -0.4318 
      5 CA         29.8195   21.1265    0.2930 C.3       1 UNK         0.0824 
      6 C6         30.7534   20.7321    1.4634 C.3       12 UNK        -0.0944 
      7 S7         29.9039   19.7298    2.7321 S.3       12 UNK        -0.2672 
      8 C8         30.4684   20.5107    4.2771 C.3       12 UNK         0.0333 
      9 C9         29.9342   21.9264    4.4507 C.ar      12 UNK        -0.0807 
     10 C10        30.7724   23.0254    4.2342 C.ar      12 UNK        -0.0894 
     11 C11        30.2988   24.3244    4.4297 C.ar      12 UNK        -0.0804 
     12 C12        28.9946   24.5186    4.8873 C.ar      12 UNK        -0.0824 
     13 C13        28.1288   23.4364    5.0562 C.ar      12 UNK        -0.0762 
     14 C14        28.6076   22.1385    4.8435 C.ar      12 UNK        -0.0782 
     15 C15        26.6799   23.6740    5.4629 C.3       12 UNK         0.0230 
     16 S16        25.7016   24.4225    4.1123 S.3       12 UNK        -0.2608 
     17 C17        25.9571   26.2149    4.3687 C.3       12 UNK        -0.0989 
     18 CA         26.8578   26.8942    3.2963 C.3       5 UNK         0.0716 
     19 N          26.2819   26.8575    1.9549 N.am      5 UNK        -0.4135 
     20 C          26.7385   26.1009    0.9517 C.2       4 UNK         0.5031 
     21 O          27.5912   25.2195    1.0749 O.2       4 UNK        -0.5229 
     22 CA         26.2215   26.4288   -0.4624 C.3       4 UNK         0.0329 
     23 CB         25.1392   27.5324   -0.5191 C.3       4 UNK        -0.2001 
     24 N          27.3523   26.7722   -1.3298 N.am      4 UNK        -0.4303 
     25 C          28.2813   27.7123   -1.1007 C.2       3 UNK         0.5044 
     26 O          28.2345   28.5110   -0.1624 O.2       3 UNK        -0.5152 
     27 CA         29.4954   27.7047   -2.0474 C.3       3 UNK         0.0319 
     28 CB         30.3517   28.9749   -1.9034 C.3       3 UNK        -0.2001 
     29 N          30.3451   26.5362   -1.8037 N.am      3 UNK        -0.4354 
     30 C          30.0558   25.2727   -2.1430 C.2       2 UNK         0.4964 
     31 O          29.0393   24.9489   -2.7607 O.2       2 UNK        -0.5047 
     32 CA         31.0507   24.1817   -1.7302 C.3       2 UNK         0.0288 
     33 CB         32.3639   24.7003   -1.1027 C.3       2 UNK        -0.2113 
     34 N          30.3801   23.2659   -0.8096 N.am      2 UNK        -0.4145 
     35 C          30.5986   21.9455   -0.7569 C.2       1 UNK         0.5006 
     36 O          31.3983   21.3602   -1.4907 O.2       1 UNK        -0.5103 
     37 C          27.2076   28.3544    3.6562 C.2       5 UNK         0.5055 
     38 O          27.0024   28.7626    4.8015 O.2       5 UNK        -0.5220 
     39 N          27.7335   29.1362    2.6967 N.am      6 UNK        -0.4450 
     40 CA         28.1544   30.5330    2.8860 C.3       6 UNK         0.0367 
     41 CB         28.2089   31.2377    1.5196 C.3       6 UNK        -0.1929 
     42 C          29.4897   30.6445    3.6511 C.2       6 UNK         0.5070 
     43 O          30.4649   31.1990    3.1375 O.2       6 UNK        -0.5237 
     44 N          29.5181   30.0927    4.8704 N.am      7 UNK        -0.4739 
     45 CA         30.6862   29.9757    5.7529 C.3       7 UNK         0.0276 
     46 CB         30.3316   29.0352    6.9162 C.3       7 UNK        -0.1927 
     47 C          31.2370   31.3146    6.2748 C.2       7 UNK         0.5013 
     48 O          32.3254   31.3361    6.8502 O.2       7 UNK        -0.5193 
     49 N          30.4909   32.4050    6.0570 N.am      8 UNK        -0.4253 
     50 CA         30.8965   33.7786    6.3460 C.3       8 UNK         0.0242 
     51 CB         29.6795   34.7047    6.1863 C.3       8 UNK        -0.2000 
     52 C          32.0658   34.2748    5.4747 C.2       8 UNK         0.4948 
     53 O          32.7665   35.1910    5.9081 O.2       8 UNK        -0.5275 
     54 N          32.2640   33.6884    4.2825 N.am      9 UNK        -0.4246 
     55 CA         33.3482   34.0614    3.3729 C.3       9 UNK         0.0261 
     56 CB         33.0413   35.3977    2.6630 C.3       9 UNK        -0.1959 
     57 C          33.6648   32.9588    2.3565 C.2       9 UNK         0.5033 
     58 O          34.8011   32.4853    2.3174 O.2       9 UNK        -0.5390 
     59 N          32.6841   32.6215    1.5086 N.am      10 UNK        -0.4215 
     60 CA         32.8921   31.8149    0.3033 C.3       10 UNK         0.0240 
     61 CB         31.7227   32.0353   -0.6690 C.3       10 UNK        -0.1982 
     62 C          33.1105   30.3177    0.5711 C.2       10 UNK         0.4970 
     63 O          33.9551   29.7123   -0.0902 O.2       10 UNK        -0.4916 
     64 N          32.3436   29.7427    1.5039 N.am      11 UNK        -0.4279 
     65 CA         32.4500   28.3309    1.8942 C.3       11 UNK         0.1003 
     66 C          33.5989   28.1205    2.9153 C.2       11 UNK         0.5709 
     67 N          34.3866   27.0648    2.7614 N.am      11 UNK        -0.7358 
     68 O          33.7589   28.8856    3.8637 O.2       11 UNK        -0.4999 
     69 C69        31.0931   27.8059    2.4223 C.3       12 UNK        -0.0954 
     70 S70        30.9318   25.9949    2.3567 S.3       12 UNK        -0.2268 
     71 C71        31.1688   25.5248    4.1014 C.3       12 UNK         0.0203 
     72 H72        25.4631   21.6130    0.9125 H         1 UNK         0.0888 
     73 H73        26.4736   22.7985    1.7405 H         1 UNK         0.0888 
     74 H74        25.7883   23.1760    0.1584 H         1 UNK         0.0888 
     75 H75        28.6327   22.1961    1.6803 H         1 UNK         0.3017 
     76 H76        29.5236   20.1994   -0.2037 H         1 UNK         0.0873 
     77 H77        31.5972   20.1459    1.0940 H         1 UNK         0.0745 
     78 H78        31.1865   21.6234    1.9168 H         1 UNK         0.0745 
     79 H79        30.1405   19.8983    5.1183 H         1 UNK         0.0705 
     80 H80        31.5593   20.5023    4.3051 H         1 UNK         0.0705 
     81 H81        31.7900   22.8734    3.9011 H         1 UNK         0.1334 
     82 H82        28.6429   25.5204    5.0788 H         1 UNK         0.1417 
     83 H83        27.9524   21.2898    4.9874 H         1 UNK         0.1562 
     84 H84        26.6389   24.2959    6.3579 H         1 UNK         0.0748 
     85 H85        26.2094   22.7284    5.7366 H         1 UNK         0.0748 
     86 H86        26.3686   26.3625    5.3683 H         1 UNK         0.0940 
     87 H87        24.9760   26.6929    4.3860 H         1 UNK         0.0940 
     88 H88        27.8193   26.3831    3.2733 H         1 UNK         0.0703 
     89 H89        25.5984   27.5713    1.7473 H         1 UNK         0.3081 
     90 H90        25.7878   25.5091   -0.8567 H         1 UNK         0.0719 
     91 H91        25.5033   28.4934   -0.1534 H         1 UNK         0.0809 
     92 H92        24.7975   27.6849   -1.5430 H         1 UNK         0.0809 
     93 H93        24.2615   27.2577    0.0675 H         1 UNK         0.0809 
     94 H94        27.5671   26.0996   -2.0596 H         1 UNK         0.2990 
     95 H95        29.1210   27.6634   -3.0725 H         1 UNK         0.0690 
     96 H96        31.1790   28.9822   -2.6131 H         1 UNK         0.0788 
     97 H97        30.7684   29.0644   -0.9000 H         1 UNK         0.0788 
     98 H98        29.7556   29.8694   -2.0893 H         1 UNK         0.0788 
     99 H99        31.1874   26.7007   -1.2727 H         1 UNK         0.2993 
    100 H100       31.3025   23.6508   -2.6511 H         1 UNK         0.0949 
    101 H101       32.8838   25.3833   -1.7760 H         1 UNK         0.0767 
    102 H102       32.1929   25.2193   -0.1605 H         1 UNK         0.0767 
    103 H103       33.0488   23.8766   -0.8999 H         1 UNK         0.0767 
    104 H104       29.6696   23.6684   -0.2112 H         1 UNK         0.3013 
    105 H105       27.8982   28.7488    1.7696 H         1 UNK         0.3121 
    106 H106       27.3986   31.0439    3.4861 H         1 UNK         0.0774 
    107 H107       27.2500   31.1825    1.0043 H         1 UNK         0.0815 
    108 H108       28.9614   30.7907    0.8710 H         1 UNK         0.0815 
    109 H109       28.4587   32.2936    1.6308 H         1 UNK         0.0815 
    110 H110       28.6591   29.6501    5.1881 H         1 UNK         0.2987 
    111 H111       31.4955   29.5201    5.1809 H         1 UNK         0.0949 
    112 H112       29.5189   29.4356    7.5234 H         1 UNK         0.0806 
    113 H113       30.0279   28.0527    6.5544 H         1 UNK         0.0806 
    114 H114       31.1884   28.8848    7.5746 H         1 UNK         0.0806 
    115 H115       29.6071   32.2774    5.5868 H         1 UNK         0.3010 
    116 H116       31.2252   33.8183    7.3868 H         1 UNK         0.0829 
    117 H117       28.8688   34.4159    6.8556 H         1 UNK         0.0813 
    118 H118       29.9411   35.7367    6.4249 H         1 UNK         0.0813 
    119 H119       29.2947   34.6945    5.1656 H         1 UNK         0.0813 
    120 H120       31.6801   32.9056    4.0084 H         1 UNK         0.3038 
    121 H121       34.2551   34.1991    3.9666 H         1 UNK         0.0769 
    122 H122       32.0845   35.3717    2.1409 H         1 UNK         0.0811 
    123 H123       33.8103   35.6363    1.9268 H         1 UNK         0.0811 
    124 H124       33.0101   36.2272    3.3694 H         1 UNK         0.0811 
    125 H125       31.7661   33.0228    1.6350 H         1 UNK         0.3204 
    126 H126       33.7953   32.1849   -0.1878 H         1 UNK         0.0748 
    127 H127       31.8797   31.4844   -1.5971 H         1 UNK         0.0771 
    128 H128       30.7756   31.7028   -0.2459 H         1 UNK         0.0771 
    129 H129       31.6203   33.0875   -0.9350 H         1 UNK         0.0771 
    130 H130       31.7091   30.3196    2.0504 H         1 UNK         0.2980 
    131 H131       32.6868   27.7610    0.9930 H         1 UNK         0.0545 
    132 H132       35.1303   26.9097    3.4233 H         1 UNK         0.3459 
    133 H133       34.2520   26.4209    1.9983 H         1 UNK         0.3459 
    134 H134       30.8936   28.1606    3.4302 H         1 UNK         0.0616 
    135 H135       30.2867   28.1986    1.8015 H         1 UNK         0.0616 
    136 H136       32.2219   25.2993    4.2758 H         1 UNK         0.0634 
    137 H137       30.9148   26.3525    4.7644 H         1 UNK         0.0634 
@<TRIPOS>BOND
     1    1    2 1    
     2    1   72 1    
     3    1   73 1    
     4    1   74 1    
     5    2    3 2    
     6    2    4 am   BACKBONE|DICT|INTERRES
     7    4    5 1    
     8    4   75 1    
     9    5    6 1    
    10    5   35 1    
    11    5   76 1    
    12    6    7 1    
    13    6   77 1    
    14    6   78 1    
    15    7    8 1    
    16    8    9 1    
    17    8   79 1    
    18    8   80 1    
    19    9   10 ar   
    20    9   14 ar   
    21   10   11 ar   
    22   10   81 1    
    23   11   12 ar   
    24   11   71 1    
    25   12   13 ar   
    26   12   82 1    
    27   13   14 ar   
    28   13   15 1    
    29   14   83 1    
    30   15   16 1    
    31   15   84 1    
    32   15   85 1    
    33   16   17 1    
    34   17   18 1    
    35   17   86 1    
    36   17   87 1    
    37   18   19 1    
    38   18   37 1    
    39   18   88 1    
    40   19   20 am   BACKBONE|DICT|INTERRES
    41   19   89 1    
    42   20   21 2    
    43   20   22 1    
    44   22   23 1    
    45   22   24 1    
    46   22   90 1    
    47   23   91 1    
    48   23   92 1    
    49   23   93 1    
    50   24   25 am   BACKBONE|DICT|INTERRES
    51   24   94 1    
    52   25   26 2    
    53   25   27 1    
    54   27   28 1    
    55   27   29 1    
    56   27   95 1    
    57   28   96 1    
    58   28   97 1    
    59   28   98 1    
    60   29   30 am   BACKBONE|DICT|INTERRES
    61   29   99 1    
    62   30   31 2    
    63   30   32 1    
    64   32   33 1    
    65   32   34 1    
    66   32  100 1    
    67   33  101 1    
    68   33  102 1    
    69   33  103 1    
    70   34   35 am   BACKBONE|DICT|INTERRES
    71   34  104 1    
    72   35   36 2    
    73   37   38 2    
    74   37   39 am   BACKBONE|DICT|INTERRES
    75   39   40 1    
    76   39  105 1    
    77   40   41 1    
    78   40   42 1    
    79   40  106 1    
    80   41  107 1    
    81   41  108 1    
    82   41  109 1    
    83   42   43 2    
    84   42   44 am   BACKBONE|DICT|INTERRES
    85   44   45 1    
    86   44  110 1    
    87   45   46 1    
    88   45   47 1    
    89   45  111 1    
    90   46  112 1    
    91   46  113 1    
    92   46  114 1    
    93   47   48 2    
    94   47   49 am   BACKBONE|DICT|INTERRES
    95   49   50 1    
    96   49  115 1    
    97   50   51 1    
    98   50   52 1    
    99   50  116 1    
   100   51  117 1    
   101   51  118 1    
   102   51  119 1    
   103   52   53 2    
   104   52   54 am   BACKBONE|DICT|INTERRES
   105   54   55 1    
   106   54  120 1    
   107   55   56 1    
   108   55   57 1    
   109   55  121 1    
   110   56  122 1    
   111   56  123 1    
   112   56  124 1    
   113   57   58 2    
   114   57   59 am   BACKBONE|DICT|INTERRES
   115   59   60 1    
   116   59  125 1    
   117   60   61 1    
   118   60   62 1    
   119   60  126 1    
   120   61  127 1    
   121   61  128 1    
   122   61  129 1    
   123   62   63 2    
   124   62   64 am   BACKBONE|DICT|INTERRES
   125   64   65 1    
   126   64  130 1    
   127   65   66 1    
   128   65   69 1    
   129   65  131 1    
   130   66   67 am   BACKBONE|DICT|INTERRES
   131   66   68 2    
   132   67  132 1    
   133   67  133 1    
   134   69   70 1    
   135   69  134 1    
   136   69  135 1    
   137   70   71 1    
   138   71  136 1    
   139   71  137 1    
@<TRIPOS>SUBSTRUCTURE
     1 UNK         1 GROUP             0       ****    0 ROOT    
