@<TRIPOS>MOLECULE
3R136
137   139    1
SMALL
USER_CHARGES


@<TRIPOS>ATOM
      1 CA         27.6867   20.4202    1.2760 C.3       0 UNK        -0.1979 
      2 C          28.3660   20.8419   -0.0189 C.2       0 UNK         0.4864 
      3 O          28.6800   19.9858   -0.8475 O.2       0 UNK        -0.5359 
      4 N          28.5958   22.1477   -0.1906 N.am      1 UNK        -0.4318 
      5 CA         29.2260   22.7534   -1.3655 C.3       1 UNK         0.0824 
      6 C6         30.6897   23.1981   -1.0885 C.3       12 UNK        -0.0944 
      7 S7         30.8855   24.3834    0.2895 S.3       12 UNK        -0.2672 
      8 C8         31.3452   23.2472    1.6329 C.3       12 UNK         0.0333 
      9 C9         31.6514   23.9994    2.9164 C.ar      12 UNK        -0.0807 
     10 C10        32.9736   24.3015    3.2560 C.ar      12 UNK        -0.0894 
     11 C11        33.2622   24.9691    4.4491 C.ar      12 UNK        -0.0804 
     12 C12        32.2167   25.3478    5.2969 C.ar      12 UNK        -0.0824 
     13 C13        30.8903   25.0458    4.9701 C.ar      12 UNK        -0.0762 
     14 C14        30.6144   24.3696    3.7780 C.ar      12 UNK        -0.0782 
     15 C15        29.7660   25.4187    5.9259 C.3       12 UNK         0.0230 
     16 S16        28.8140   26.8571    5.3426 S.3       12 UNK        -0.2608 
     17 C17        27.4238   26.0812    4.4435 C.3       12 UNK        -0.0989 
     18 CA         27.3212   26.5337    2.9615 C.3       5 UNK         0.0716 
     19 N          26.3574   25.7354    2.2160 N.am      5 UNK        -0.4135 
     20 C          26.5524   24.5020    1.7423 C.2       4 UNK         0.5031 
     21 O          27.5888   23.8574    1.9009 O.2       4 UNK        -0.5229 
     22 CA         25.4101   23.8826    0.9175 C.3       4 UNK         0.0329 
     23 CB         24.2029   23.4977    1.7952 C.3       4 UNK        -0.2001 
     24 N          25.0368   24.7170   -0.2304 N.am      4 UNK        -0.4303 
     25 C          24.4611   25.9297   -0.2271 C.2       3 UNK         0.5044 
     26 O          23.9891   26.4600    0.7811 O.2       3 UNK        -0.5152 
     27 CA         24.4976   26.7074   -1.5600 C.3       3 UNK         0.0319 
     28 CB         24.2513   28.2173   -1.3638 C.3       3 UNK        -0.2001 
     29 N          25.7354   26.4808   -2.3239 N.am      3 UNK        -0.4354 
     30 C          26.9992   26.6301   -1.8932 C.2       2 UNK         0.4964 
     31 O          27.3193   27.0535   -0.7816 O.2       2 UNK        -0.5047 
     32 CA         28.1025   26.1549   -2.8503 C.3       2 UNK         0.0288 
     33 CB         29.0966   27.2908   -3.1463 C.3       2 UNK        -0.2113 
     34 N          28.8289   25.0093   -2.2948 N.am      2 UNK        -0.4145 
     35 C          28.2874   23.8337   -1.9402 C.2       1 UNK         0.5006 
     36 O          27.0885   23.5708   -2.0778 O.2       1 UNK        -0.5103 
     37 C          26.9169   28.0097    2.7839 C.2       5 UNK         0.5055 
     38 O          26.2742   28.5848    3.6659 O.2       5 UNK        -0.5220 
     39 N          27.2554   28.5869    1.6225 N.am      6 UNK        -0.4450 
     40 CA         27.1229   30.0161    1.3178 C.3       6 UNK         0.0367 
     41 CB         27.5498   30.2605   -0.1420 C.3       6 UNK        -0.1929 
     42 C          27.9805   30.8969    2.2438 C.2       6 UNK         0.5070 
     43 O          28.9779   30.4282    2.7936 O.2       6 UNK        -0.5237 
     44 N          27.6386   32.1905    2.3247 N.am      7 UNK        -0.4739 
     45 CA         28.3703   33.2106    3.0936 C.3       7 UNK         0.0276 
     46 CB         27.6103   34.5444    3.0096 C.3       7 UNK        -0.1927 
     47 C          29.8432   33.4025    2.6729 C.2       7 UNK         0.5013 
     48 O          30.6375   33.9090    3.4656 O.2       7 UNK        -0.5193 
     49 N          30.1833   32.9740    1.4493 N.am      8 UNK        -0.4253 
     50 CA         31.5438   32.9098    0.9168 C.3       8 UNK         0.0242 
     51 CB         31.4720   32.6839   -0.6026 C.3       8 UNK        -0.2000 
     52 C          32.4256   31.8304    1.5762 C.2       8 UNK         0.4948 
     53 O          33.6495   31.9202    1.4577 O.2       8 UNK        -0.5275 
     54 N          31.8300   30.8354    2.2552 N.am      9 UNK        -0.4246 
     55 CA         32.5379   29.7576    2.9542 C.3       9 UNK         0.0261 
     56 CB         31.5922   28.5580    3.1510 C.3       9 UNK        -0.1959 
     57 C          33.1559   30.2474    4.2785 C.2       9 UNK         0.5033 
     58 O          32.7634   29.8009    5.3587 O.2       9 UNK        -0.5390 
     59 N          34.1398   31.1511    4.1668 N.am      10 UNK        -0.4215 
     60 CA         34.9132   31.7399    5.2692 C.3       10 UNK         0.0240 
     61 CB         35.8501   32.8185    4.7017 C.3       10 UNK        -0.1982 
     62 C          35.7075   30.7166    6.1055 C.2       10 UNK         0.4970 
     63 O          36.0863   31.0227    7.2367 O.2       10 UNK        -0.4916 
     64 N          35.9191   29.5212    5.5438 N.am      11 UNK        -0.4279 
     65 CA         36.3956   28.3122    6.2239 C.3       11 UNK         0.1003 
     66 C          35.4709   27.7935    7.3672 C.2       11 UNK         0.5709 
     67 N          34.1942   28.1603    7.4159 N.am      11 UNK        -0.7358 
     68 O          35.9279   27.0457    8.2282 O.2       11 UNK        -0.4999 
     69 C69        36.7090   27.1950    5.1911 C.3       12 UNK        -0.0954 
     70 S70        35.2947   26.8055    4.0962 S.3       12 UNK        -0.2268 
     71 C71        34.7028   25.2568    4.8394 C.3       12 UNK         0.0203 
     72 H72        26.6504   20.1441    1.0835 H         1 UNK         0.0888 
     73 H73        28.1963   19.5578    1.7051 H         1 UNK         0.0888 
     74 H74        27.6965   21.2164    2.0196 H         1 UNK         0.0888 
     75 H75        28.3011   22.8070    0.5281 H         1 UNK         0.3017 
     76 H76        29.2779   22.0104   -2.1639 H         1 UNK         0.0873 
     77 H77        31.2917   22.3130   -0.8773 H         1 UNK         0.0745 
     78 H78        31.1405   23.6275   -1.9849 H         1 UNK         0.0745 
     79 H79        30.5337   22.5396    1.8071 H         1 UNK         0.0705 
     80 H80        32.2107   22.6560    1.3295 H         1 UNK         0.0705 
     81 H81        33.7799   24.0108    2.5964 H         1 UNK         0.1334 
     82 H82        32.4393   25.8689    6.2183 H         1 UNK         0.1417 
     83 H83        29.5928   24.1297    3.5183 H         1 UNK         0.1562 
     84 H84        30.1774   25.6634    6.9064 H         1 UNK         0.0748 
     85 H85        29.1113   24.5617    6.0886 H         1 UNK         0.0748 
     86 H86        26.4978   26.2960    4.9799 H         1 UNK         0.0940 
     87 H87        27.5355   24.9977    4.4865 H         1 UNK         0.0940 
     88 H88        28.3010   26.4037    2.4947 H         1 UNK         0.0703 
     89 H89        25.4861   26.2004    1.9706 H         1 UNK         0.3081 
     90 H90        25.7978   22.9586    0.4861 H         1 UNK         0.0719 
     91 H91        23.7666   24.3567    2.3051 H         1 UNK         0.0809 
     92 H92        23.4185   23.0268    1.2028 H         1 UNK         0.0809 
     93 H93        24.4994   22.7847    2.5654 H         1 UNK         0.0809 
     94 H94        25.4511   24.4106   -1.1054 H         1 UNK         0.2990 
     95 H95        23.6829   26.3127   -2.1688 H         1 UNK         0.0690 
     96 H96        23.2433   28.4004   -0.9897 H         1 UNK         0.0788 
     97 H97        24.3560   28.7676   -2.2987 H         1 UNK         0.0788 
     98 H98        24.9432   28.6438   -0.6385 H         1 UNK         0.0788 
     99 H99        25.5994   26.0925   -3.2475 H         1 UNK         0.2993 
    100 H100       27.6506   25.8390   -3.7928 H         1 UNK         0.0949 
    101 H101       28.5839   28.1582   -3.5645 H         1 UNK         0.0767 
    102 H102       29.6122   27.6220   -2.2435 H         1 UNK         0.0767 
    103 H103       29.8511   26.9808   -3.8696 H         1 UNK         0.0767 
    104 H104       29.8059   25.1579   -2.0864 H         1 UNK         0.3013 
    105 H105       27.6498   28.0075    0.8861 H         1 UNK         0.3121 
    106 H106       26.0742   30.2937    1.4405 H         1 UNK         0.0774 
    107 H107       27.4572   31.3127   -0.4135 H         1 UNK         0.0815 
    108 H108       28.5879   29.9697   -0.3101 H         1 UNK         0.0815 
    109 H109       26.9353   29.7014   -0.8447 H         1 UNK         0.0815 
    110 H110       26.8177   32.5068    1.8274 H         1 UNK         0.2987 
    111 H111       28.3811   32.8864    4.1366 H         1 UNK         0.0949 
    112 H112       27.5425   34.9066    1.9831 H         1 UNK         0.0806 
    113 H113       26.5976   34.4510    3.4023 H         1 UNK         0.0806 
    114 H114       28.1110   35.3172    3.5950 H         1 UNK         0.0806 
    115 H115       29.4525   32.5819    0.8747 H         1 UNK         0.3010 
    116 H116       32.0231   33.8741    1.0989 H         1 UNK         0.0829 
    117 H117       30.9190   33.4823   -1.0979 H         1 UNK         0.0813 
    118 H118       32.4704   32.6643   -1.0420 H         1 UNK         0.0813 
    119 H119       30.9899   31.7367   -0.8483 H         1 UNK         0.0813 
    120 H120       30.8175   30.8339    2.3561 H         1 UNK         0.3038 
    121 H121       33.3592   29.4162    2.3202 H         1 UNK         0.0769 
    122 H122       30.7687   28.7963    3.8247 H         1 UNK         0.0811 
    123 H123       32.1258   27.7110    3.5833 H         1 UNK         0.0811 
    124 H124       31.1651   28.2222    2.2060 H         1 UNK         0.0811 
    125 H125       34.3399   31.4906    3.2289 H         1 UNK         0.3204 
    126 H126       34.2024   32.2209    5.9441 H         1 UNK         0.0748 
    127 H127       36.4171   33.3036    5.4976 H         1 UNK         0.0771 
    128 H128       36.5694   32.3976    3.9979 H         1 UNK         0.0771 
    129 H129       35.2903   33.5979    4.1840 H         1 UNK         0.0771 
    130 H130       35.5646   29.3704    4.6118 H         1 UNK         0.2980 
    131 H131       37.3373   28.5808    6.7060 H         1 UNK         0.0545 
    132 H132       33.7915   28.7553    6.6982 H         1 UNK         0.3459 
    133 H133       33.6165   27.8258    8.1694 H         1 UNK         0.3459 
    134 H134       37.5344   27.5162    4.5542 H         1 UNK         0.0616 
    135 H135       37.0624   26.2887    5.6866 H         1 UNK         0.0616 
    136 H136       34.7838   25.3109    5.9257 H         1 UNK         0.0634 
    137 H137       35.3508   24.4375    4.5247 H         1 UNK         0.0634 
@<TRIPOS>BOND
     1    1    2 1    
     2    1   72 1    
     3    1   73 1    
     4    1   74 1    
     5    2    3 2    
     6    2    4 am   BACKBONE|DICT|INTERRES
     7    4    5 1    
     8    4   75 1    
     9    5    6 1    
    10    5   35 1    
    11    5   76 1    
    12    6    7 1    
    13    6   77 1    
    14    6   78 1    
    15    7    8 1    
    16    8    9 1    
    17    8   79 1    
    18    8   80 1    
    19    9   10 ar   
    20    9   14 ar   
    21   10   11 ar   
    22   10   81 1    
    23   11   12 ar   
    24   11   71 1    
    25   12   13 ar   
    26   12   82 1    
    27   13   14 ar   
    28   13   15 1    
    29   14   83 1    
    30   15   16 1    
    31   15   84 1    
    32   15   85 1    
    33   16   17 1    
    34   17   18 1    
    35   17   86 1    
    36   17   87 1    
    37   18   19 1    
    38   18   37 1    
    39   18   88 1    
    40   19   20 am   BACKBONE|DICT|INTERRES
    41   19   89 1    
    42   20   21 2    
    43   20   22 1    
    44   22   23 1    
    45   22   24 1    
    46   22   90 1    
    47   23   91 1    
    48   23   92 1    
    49   23   93 1    
    50   24   25 am   BACKBONE|DICT|INTERRES
    51   24   94 1    
    52   25   26 2    
    53   25   27 1    
    54   27   28 1    
    55   27   29 1    
    56   27   95 1    
    57   28   96 1    
    58   28   97 1    
    59   28   98 1    
    60   29   30 am   BACKBONE|DICT|INTERRES
    61   29   99 1    
    62   30   31 2    
    63   30   32 1    
    64   32   33 1    
    65   32   34 1    
    66   32  100 1    
    67   33  101 1    
    68   33  102 1    
    69   33  103 1    
    70   34   35 am   BACKBONE|DICT|INTERRES
    71   34  104 1    
    72   35   36 2    
    73   37   38 2    
    74   37   39 am   BACKBONE|DICT|INTERRES
    75   39   40 1    
    76   39  105 1    
    77   40   41 1    
    78   40   42 1    
    79   40  106 1    
    80   41  107 1    
    81   41  108 1    
    82   41  109 1    
    83   42   43 2    
    84   42   44 am   BACKBONE|DICT|INTERRES
    85   44   45 1    
    86   44  110 1    
    87   45   46 1    
    88   45   47 1    
    89   45  111 1    
    90   46  112 1    
    91   46  113 1    
    92   46  114 1    
    93   47   48 2    
    94   47   49 am   BACKBONE|DICT|INTERRES
    95   49   50 1    
    96   49  115 1    
    97   50   51 1    
    98   50   52 1    
    99   50  116 1    
   100   51  117 1    
   101   51  118 1    
   102   51  119 1    
   103   52   53 2    
   104   52   54 am   BACKBONE|DICT|INTERRES
   105   54   55 1    
   106   54  120 1    
   107   55   56 1    
   108   55   57 1    
   109   55  121 1    
   110   56  122 1    
   111   56  123 1    
   112   56  124 1    
   113   57   58 2    
   114   57   59 am   BACKBONE|DICT|INTERRES
   115   59   60 1    
   116   59  125 1    
   117   60   61 1    
   118   60   62 1    
   119   60  126 1    
   120   61  127 1    
   121   61  128 1    
   122   61  129 1    
   123   62   63 2    
   124   62   64 am   BACKBONE|DICT|INTERRES
   125   64   65 1    
   126   64  130 1    
   127   65   66 1    
   128   65   69 1    
   129   65  131 1    
   130   66   67 am   BACKBONE|DICT|INTERRES
   131   66   68 2    
   132   67  132 1    
   133   67  133 1    
   134   69   70 1    
   135   69  134 1    
   136   69  135 1    
   137   70   71 1    
   138   71  136 1    
   139   71  137 1    
@<TRIPOS>SUBSTRUCTURE
     1 UNK         1 GROUP             0       ****    0 ROOT    
