@<TRIPOS>MOLECULE
3R136
137   139    1
SMALL
USER_CHARGES


@<TRIPOS>ATOM
      1 CA         28.3739   16.8738    1.1642 C.3       0 UNK        -0.1979 
      2 C          28.1481   18.3685    1.3355 C.2       0 UNK         0.4864 
      3 O          27.5366   18.7828    2.3222 O.2       0 UNK        -0.5359 
      4 N          28.6341   19.1768    0.3815 N.am      1 UNK        -0.4318 
      5 CA         28.5287   20.6405    0.3117 C.3       1 UNK         0.0824 
      6 C6         29.1522   21.3629    1.5390 C.3       12 UNK        -0.0944 
      7 S7         29.4142   23.1526    1.2848 S.3       12 UNK        -0.2672 
      8 C8         31.2232   23.2184    1.1020 C.3       12 UNK         0.0333 
      9 C9         31.7498   24.6352    1.2708 C.ar      12 UNK        -0.0807 
     10 C10        31.8861   25.1739    2.5544 C.ar      12 UNK        -0.0894 
     11 C11        32.4083   26.4576    2.7352 C.ar      12 UNK        -0.0804 
     12 C12        32.7967   27.2024    1.6194 C.ar      12 UNK        -0.0824 
     13 C13        32.6435   26.6863    0.3287 C.ar      12 UNK        -0.0762 
     14 C14        32.1255   25.3977    0.1595 C.ar      12 UNK        -0.0782 
     15 C15        33.0438   27.5274   -0.8769 C.3       12 UNK         0.0230 
     16 S16        31.6142   28.0706   -1.8720 S.3       12 UNK        -0.2608 
     17 C17        30.5939   28.9734   -0.6527 C.3       12 UNK        -0.0989 
     18 CA         29.0666   28.8146   -0.8817 C.3       5 UNK         0.0716 
     19 N          28.6510   27.4163   -0.9646 N.am      5 UNK        -0.4135 
     20 C          28.1892   26.7992   -2.0569 C.2       4 UNK         0.5031 
     21 O          28.1202   27.3215   -3.1710 O.2       4 UNK        -0.5229 
     22 CA         27.7150   25.3452   -1.8819 C.3       4 UNK         0.0329 
     23 CB         28.8549   24.3752   -2.2341 C.3       4 UNK        -0.2001 
     24 N          27.2140   25.0408   -0.5367 N.am      4 UNK        -0.4303 
     25 C          26.1205   25.5837    0.0190 C.2       3 UNK         0.5044 
     26 O          25.3951   26.4014   -0.5507 O.2       3 UNK        -0.5152 
     27 CA         25.7885   25.1064    1.4464 C.3       3 UNK         0.0319 
     28 CB         24.5931   25.8538    2.0756 C.3       3 UNK        -0.2001 
     29 N          25.5939   23.6520    1.5067 N.am      3 UNK        -0.4354 
     30 C          24.6776   22.9210    0.8485 C.2       2 UNK         0.4964 
     31 O          23.7902   23.3974    0.1385 O.2       2 UNK        -0.5047 
     32 CA         24.7919   21.3897    1.0123 C.3       2 UNK         0.0288 
     33 CB         23.9373   20.6051   -0.0069 C.3       2 UNK        -0.2113 
     34 N          26.1845   20.9221    0.9886 N.am      2 UNK        -0.4145 
     35 C          27.0877   21.1014    0.0124 C.2       1 UNK         0.5006 
     36 O          26.8351   21.6149   -1.0778 O.2       1 UNK        -0.5103 
     37 C          28.2915   29.4602    0.2797 C.2       5 UNK         0.5055 
     38 O          27.7904   28.7498    1.1579 O.2       5 UNK        -0.5220 
     39 N          28.2457   30.7985    0.2915 N.am      6 UNK        -0.4450 
     40 CA         27.7850   31.5893    1.4351 C.3       6 UNK         0.0367 
     41 CB         27.6154   33.0540    0.9992 C.3       6 UNK        -0.1929 
     42 C          28.7847   31.4924    2.6002 C.2       6 UNK         0.5070 
     43 O          29.9822   31.3265    2.3587 O.2       6 UNK        -0.5237 
     44 N          28.2888   31.6505    3.8359 N.am      7 UNK        -0.4739 
     45 CA         29.0568   31.5051    5.0832 C.3       7 UNK         0.0276 
     46 CB         28.1223   31.7103    6.2856 C.3       7 UNK        -0.1927 
     47 C          30.2952   32.4149    5.2034 C.2       7 UNK         0.5013 
     48 O          31.2459   32.0622    5.9045 O.2       7 UNK        -0.5193 
     49 N          30.2721   33.5458    4.4840 N.am      8 UNK        -0.4253 
     50 CA         31.3817   34.4852    4.3226 C.3       8 UNK         0.0242 
     51 CB         30.8941   35.7037    3.5223 C.3       8 UNK        -0.2000 
     52 C          32.6335   33.8768    3.6620 C.2       8 UNK         0.4948 
     53 O          33.7267   34.4012    3.8793 O.2       8 UNK        -0.5275 
     54 N          32.4908   32.7718    2.9120 N.am      9 UNK        -0.4246 
     55 CA         33.5856   32.0223    2.2822 C.3       9 UNK         0.0261 
     56 CB         33.0168   31.1886    1.1195 C.3       9 UNK        -0.1959 
     57 C          34.3871   31.1633    3.2871 C.2       9 UNK         0.5033 
     58 O          34.6803   30.0004    3.0058 O.2       9 UNK        -0.5390 
     59 N          34.7337   31.7615    4.4356 N.am      10 UNK        -0.4215 
     60 CA         35.5121   31.2113    5.5502 C.3       10 UNK         0.0240 
     61 CB         36.9834   31.0092    5.1272 C.3       10 UNK        -0.1982 
     62 C          34.8976   29.9504    6.1933 C.2       10 UNK         0.4970 
     63 O          35.6440   29.0837    6.6539 O.2       10 UNK        -0.4916 
     64 N          33.5600   29.8666    6.2378 N.am      11 UNK        -0.4279 
     65 CA         32.8386   28.7457    6.8656 C.3       11 UNK         0.1003 
     66 C          32.7620   28.8259    8.4182 C.2       11 UNK         0.5709 
     67 N          33.1114   29.9418    9.0482 N.am      11 UNK        -0.7358 
     68 O          32.3884   27.8502    9.0651 O.2       11 UNK        -0.4999 
     69 C69        31.4284   28.5292    6.2555 C.3       12 UNK        -0.0954 
     70 S70        31.3784   28.3816    4.4354 S.3       12 UNK        -0.2268 
     71 C71        32.5661   27.0366    4.1331 C.3       12 UNK         0.0203 
     72 H72        28.9354   16.4806    2.0111 H         1 UNK         0.0888 
     73 H73        27.4177   16.3533    1.1179 H         1 UNK         0.0888 
     74 H74        28.9287   16.6457    0.2543 H         1 UNK         0.0888 
     75 H75        29.1020   18.7546   -0.4091 H         1 UNK         0.3017 
     76 H76        29.1255   20.9209   -0.5583 H         1 UNK         0.0873 
     77 H77        28.5364   21.2377    2.4308 H         1 UNK         0.0745 
     78 H78        30.1066   20.8957    1.7853 H         1 UNK         0.0745 
     79 H79        31.5014   22.8129    0.1279 H         1 UNK         0.0705 
     80 H80        31.6946   22.5787    1.8496 H         1 UNK         0.0705 
     81 H81        31.5891   24.5871    3.4130 H         1 UNK         0.1334 
     82 H82        33.2043   28.1937    1.7625 H         1 UNK         0.1417 
     83 H83        32.0178   24.9930   -0.8376 H         1 UNK         0.1562 
     84 H84        33.7140   26.9464   -1.5120 H         1 UNK         0.0748 
     85 H85        33.6087   28.4069   -0.5645 H         1 UNK         0.0748 
     86 H86        30.8758   30.0265   -0.7013 H         1 UNK         0.0940 
     87 H87        30.8509   28.6466    0.3551 H         1 UNK         0.0940 
     88 H88        28.7896   29.3402   -1.7981 H         1 UNK         0.0703 
     89 H89        28.5981   26.9387   -0.0762 H         1 UNK         0.3081 
     90 H90        26.8954   25.1802   -2.5844 H         1 UNK         0.0719 
     91 H91        29.2365   24.5691   -3.2375 H         1 UNK         0.0809 
     92 H92        29.6929   24.4717   -1.5437 H         1 UNK         0.0809 
     93 H93        28.5193   23.3391   -2.2131 H         1 UNK         0.0809 
     94 H94        27.7418   24.3620   -0.0038 H         1 UNK         0.2990 
     95 H95        26.6664   25.3274    2.0560 H         1 UNK         0.0690 
     96 H96        24.4122   25.5228    3.0981 H         1 UNK         0.0788 
     97 H97        23.6738   25.7075    1.5078 H         1 UNK         0.0788 
     98 H98        24.7842   26.9272    2.1109 H         1 UNK         0.0788 
     99 H99        26.2781   23.1488    2.0542 H         1 UNK         0.2993 
    100 H100       24.4070   21.1631    2.0078 H         1 UNK         0.0949 
    101 H101       22.8808   20.8575    0.0920 H         1 UNK         0.0767 
    102 H102       24.2291   20.8243   -1.0345 H         1 UNK         0.0767 
    103 H103       24.0280   19.5296    0.1453 H         1 UNK         0.0767 
    104 H104       26.4979   20.3973    1.8011 H         1 UNK         0.3013 
    105 H105       28.7087   31.3084   -0.4467 H         1 UNK         0.3121 
    106 H106       26.8184   31.1998    1.7622 H         1 UNK         0.0774 
    107 H107       26.9060   33.1438    0.1764 H         1 UNK         0.0815 
    108 H108       27.2356   33.6656    1.8187 H         1 UNK         0.0815 
    109 H109       28.5611   33.4925    0.6773 H         1 UNK         0.0815 
    110 H110       27.2962   31.8092    3.9390 H         1 UNK         0.2987 
    111 H111       29.4158   30.4767    5.1035 H         1 UNK         0.0949 
    112 H112       27.3034   30.9907    6.2808 H         1 UNK         0.0806 
    113 H113       28.6608   31.5769    7.2252 H         1 UNK         0.0806 
    114 H114       27.6918   32.7123    6.2959 H         1 UNK         0.0806 
    115 H115       29.4417   33.7296    3.9407 H         1 UNK         0.3010 
    116 H116       31.6741   34.8210    5.3197 H         1 UNK         0.0829 
    117 H117       30.5635   35.4231    2.5212 H         1 UNK         0.0813 
    118 H118       30.0650   36.2036    4.0236 H         1 UNK         0.0813 
    119 H119       31.6911   36.4399    3.4076 H         1 UNK         0.0813 
    120 H120       31.5638   32.3644    2.8091 H         1 UNK         0.3038 
    121 H121       34.2884   32.7407    1.8554 H         1 UNK         0.0769 
    122 H122       32.3353   30.4182    1.4809 H         1 UNK         0.0811 
    123 H123       33.8130   30.6898    0.5660 H         1 UNK         0.0811 
    124 H124       32.4718   31.8127    0.4113 H         1 UNK         0.0811 
    125 H125       34.4507   32.7338    4.5301 H         1 UNK         0.3204 
    126 H126       35.4988   31.9751    6.3289 H         1 UNK         0.0748 
    127 H127       37.6054   30.7359    5.9806 H         1 UNK         0.0771 
    128 H128       37.0834   30.2172    4.3840 H         1 UNK         0.0771 
    129 H129       37.4034   31.9214    4.7034 H         1 UNK         0.0771 
    130 H130       32.9889   30.6161    5.8672 H         1 UNK         0.2980 
    131 H131       33.4083   27.8372    6.6650 H         1 UNK         0.0545 
    132 H132       33.0621   29.9773   10.0541 H         1 UNK         0.3459 
    133 H133       33.4049   30.7518    8.5269 H         1 UNK         0.3459 
    134 H134       30.9749   27.6251    6.6659 H         1 UNK         0.0616 
    135 H135       30.7718   29.3493    6.5466 H         1 UNK         0.0616 
    136 H136       33.5807   27.4198    4.2538 H         1 UNK         0.0634 
    137 H137       32.4306   26.2585    4.8858 H         1 UNK         0.0634 
@<TRIPOS>BOND
     1    1    2 1    
     2    1   72 1    
     3    1   73 1    
     4    1   74 1    
     5    2    3 2    
     6    2    4 am   BACKBONE|DICT|INTERRES
     7    4    5 1    
     8    4   75 1    
     9    5    6 1    
    10    5   35 1    
    11    5   76 1    
    12    6    7 1    
    13    6   77 1    
    14    6   78 1    
    15    7    8 1    
    16    8    9 1    
    17    8   79 1    
    18    8   80 1    
    19    9   10 ar   
    20    9   14 ar   
    21   10   11 ar   
    22   10   81 1    
    23   11   12 ar   
    24   11   71 1    
    25   12   13 ar   
    26   12   82 1    
    27   13   14 ar   
    28   13   15 1    
    29   14   83 1    
    30   15   16 1    
    31   15   84 1    
    32   15   85 1    
    33   16   17 1    
    34   17   18 1    
    35   17   86 1    
    36   17   87 1    
    37   18   19 1    
    38   18   37 1    
    39   18   88 1    
    40   19   20 am   BACKBONE|DICT|INTERRES
    41   19   89 1    
    42   20   21 2    
    43   20   22 1    
    44   22   23 1    
    45   22   24 1    
    46   22   90 1    
    47   23   91 1    
    48   23   92 1    
    49   23   93 1    
    50   24   25 am   BACKBONE|DICT|INTERRES
    51   24   94 1    
    52   25   26 2    
    53   25   27 1    
    54   27   28 1    
    55   27   29 1    
    56   27   95 1    
    57   28   96 1    
    58   28   97 1    
    59   28   98 1    
    60   29   30 am   BACKBONE|DICT|INTERRES
    61   29   99 1    
    62   30   31 2    
    63   30   32 1    
    64   32   33 1    
    65   32   34 1    
    66   32  100 1    
    67   33  101 1    
    68   33  102 1    
    69   33  103 1    
    70   34   35 am   BACKBONE|DICT|INTERRES
    71   34  104 1    
    72   35   36 2    
    73   37   38 2    
    74   37   39 am   BACKBONE|DICT|INTERRES
    75   39   40 1    
    76   39  105 1    
    77   40   41 1    
    78   40   42 1    
    79   40  106 1    
    80   41  107 1    
    81   41  108 1    
    82   41  109 1    
    83   42   43 2    
    84   42   44 am   BACKBONE|DICT|INTERRES
    85   44   45 1    
    86   44  110 1    
    87   45   46 1    
    88   45   47 1    
    89   45  111 1    
    90   46  112 1    
    91   46  113 1    
    92   46  114 1    
    93   47   48 2    
    94   47   49 am   BACKBONE|DICT|INTERRES
    95   49   50 1    
    96   49  115 1    
    97   50   51 1    
    98   50   52 1    
    99   50  116 1    
   100   51  117 1    
   101   51  118 1    
   102   51  119 1    
   103   52   53 2    
   104   52   54 am   BACKBONE|DICT|INTERRES
   105   54   55 1    
   106   54  120 1    
   107   55   56 1    
   108   55   57 1    
   109   55  121 1    
   110   56  122 1    
   111   56  123 1    
   112   56  124 1    
   113   57   58 2    
   114   57   59 am   BACKBONE|DICT|INTERRES
   115   59   60 1    
   116   59  125 1    
   117   60   61 1    
   118   60   62 1    
   119   60  126 1    
   120   61  127 1    
   121   61  128 1    
   122   61  129 1    
   123   62   63 2    
   124   62   64 am   BACKBONE|DICT|INTERRES
   125   64   65 1    
   126   64  130 1    
   127   65   66 1    
   128   65   69 1    
   129   65  131 1    
   130   66   67 am   BACKBONE|DICT|INTERRES
   131   66   68 2    
   132   67  132 1    
   133   67  133 1    
   134   69   70 1    
   135   69  134 1    
   136   69  135 1    
   137   70   71 1    
   138   71  136 1    
   139   71  137 1    
@<TRIPOS>SUBSTRUCTURE
     1 UNK         1 GROUP             0       ****    0 ROOT    
