@<TRIPOS>MOLECULE
3R136
137   139    1
SMALL
USER_CHARGES


@<TRIPOS>ATOM
      1 CA         29.5507   22.6521   -4.5187 C.3       0 UNK        -0.1979 
      2 C          29.0931   23.4536   -3.3100 C.2       0 UNK         0.4864 
      3 O          28.0346   24.0808   -3.3577 O.2       0 UNK        -0.5359 
      4 N          29.8717   23.4264   -2.2174 N.am      1 UNK        -0.4318 
      5 CA         29.6115   24.1646   -0.9724 C.3       1 UNK         0.0824 
      6 C6         30.7995   24.0522    0.0125 C.3       12 UNK        -0.0944 
      7 S7         30.8254   25.4512    1.1757 S.3       12 UNK        -0.2672 
      8 C8         30.8482   24.6093    2.7856 C.3       12 UNK         0.0333 
      9 C9         30.5376   25.6036    3.8912 C.ar      12 UNK        -0.0807 
     10 C10        31.4788   26.5737    4.2506 C.ar      12 UNK        -0.0894 
     11 C11        31.1635   27.5453    5.2042 C.ar      12 UNK        -0.0804 
     12 C12        29.9026   27.5325    5.8077 C.ar      12 UNK        -0.0824 
     13 C13        28.9595   26.5567    5.4707 C.ar      12 UNK        -0.0762 
     14 C14        29.2894   25.5859    4.5196 C.ar      12 UNK        -0.0782 
     15 C15        27.5828   26.5758    6.1278 C.3       12 UNK         0.0230 
     16 S16        26.1985   26.4517    4.9423 S.3       12 UNK        -0.2608 
     17 C17        26.5804   27.7676    3.7324 C.3       12 UNK        -0.0989 
     18 CA         26.7565   27.1876    2.2996 C.3       5 UNK         0.0716 
     19 N          25.5431   26.5356    1.7814 N.am      5 UNK        -0.4135 
     20 C          24.3563   27.1227    1.5540 C.2       4 UNK         0.5031 
     21 O          24.1313   28.3204    1.7397 O.2       4 UNK        -0.5229 
     22 CA         23.2171   26.2081    1.0598 C.3       4 UNK         0.0329 
     23 CB         21.9499   26.9895    0.6487 C.3       4 UNK        -0.2001 
     24 N          23.6183   25.2886   -0.0094 N.am      4 UNK        -0.4303 
     25 C          24.0996   25.5882   -1.2240 C.2       3 UNK         0.5044 
     26 O          24.3256   26.7346   -1.6140 O.2       3 UNK        -0.5152 
     27 CA         24.3735   24.3832   -2.1508 C.3       3 UNK         0.0319 
     28 CB         24.7481   24.8098   -3.5820 C.3       3 UNK        -0.2001 
     29 N          25.4281   23.5151   -1.6197 N.am      3 UNK        -0.4354 
     30 C          25.3002   22.6955   -0.5636 C.2       2 UNK         0.4964 
     31 O          24.2284   22.5058    0.0141 O.2       2 UNK        -0.5047 
     32 CA         26.5592   21.9877   -0.0255 C.3       2 UNK         0.0288 
     33 CB         26.5182   20.4887   -0.3658 C.3       2 UNK        -0.2113 
     34 N          27.8307   22.5438   -0.4934 N.am      2 UNK        -0.4145 
     35 C          28.2695   23.7969   -0.3003 C.2       1 UNK         0.5006 
     36 O          27.6435   24.6581    0.3228 O.2       1 UNK        -0.5103 
     37 C          27.2730   28.2255    1.2839 C.2       5 UNK         0.5055 
     38 O          27.2700   29.4263    1.5618 O.2       5 UNK        -0.5220 
     39 N          27.6433   27.7356    0.0925 N.am      6 UNK        -0.4450 
     40 CA         27.9728   28.5662   -1.0706 C.3       6 UNK         0.0367 
     41 CB         27.9365   27.7051   -2.3438 C.3       6 UNK        -0.1929 
     42 C          29.3102   29.3246   -0.9668 C.2       6 UNK         0.5070 
     43 O          29.4698   30.3374   -1.6501 O.2       6 UNK        -0.5237 
     44 N          30.2530   28.8303   -0.1530 N.am      7 UNK        -0.4739 
     45 CA         31.5601   29.4593    0.0627 C.3       7 UNK         0.0276 
     46 CB         32.5459   28.4103    0.6032 C.3       7 UNK        -0.1927 
     47 C          31.4874   30.6548    1.0285 C.2       7 UNK         0.5013 
     48 O          30.5410   30.7745    1.8104 O.2       7 UNK        -0.5193 
     49 N          32.5331   31.4906    0.9863 N.am      8 UNK        -0.4253 
     50 CA         32.8048   32.5420    1.9698 C.3       8 UNK         0.0242 
     51 CB         33.8816   33.4815    1.3994 C.3       8 UNK        -0.2000 
     52 C          33.2638   31.9456    3.3137 C.2       8 UNK         0.4948 
     53 O          33.6289   30.7688    3.3737 O.2       8 UNK        -0.5275 
     54 N          33.2907   32.7787    4.3630 N.am      9 UNK        -0.4246 
     55 CA         33.6237   32.4390    5.7567 C.3       9 UNK         0.0261 
     56 CB         33.1931   33.6077    6.6631 C.3       9 UNK        -0.1959 
     57 C          35.0861   32.0026    6.0250 C.2       9 UNK         0.5033 
     58 O          35.6133   32.2582    7.1092 O.2       9 UNK        -0.5390 
     59 N          35.7099   31.3118    5.0640 N.am      10 UNK        -0.4215 
     60 CA         37.0253   30.6741    5.1740 C.3       10 UNK         0.0240 
     61 CB         37.5292   30.3299    3.7628 C.3       10 UNK        -0.1982 
     62 C          37.0091   29.4171    6.0657 C.2       10 UNK         0.4970 
     63 O          38.0718   28.9721    6.4999 O.2       10 UNK        -0.4916 
     64 N          35.8110   28.8785    6.3266 N.am      11 UNK        -0.4279 
     65 CA         35.5357   27.7779    7.2598 C.3       11 UNK         0.1003 
     66 C          35.8178   28.0933    8.7607 C.2       11 UNK         0.5709 
     67 N          35.9928   29.3486    9.1603 N.am      11 UNK        -0.7358 
     68 O          35.8901   27.1759    9.5750 O.2       11 UNK        -0.4999 
     69 C69        34.1023   27.2174    7.0461 C.3       12 UNK        -0.0954 
     70 S70        32.7951   28.4821    7.2457 S.3       12 UNK        -0.2268 
     71 C71        32.1585   28.6430    5.5484 C.3       12 UNK         0.0203 
     72 H72        30.4946   22.1392   -4.3354 H         1 UNK         0.0888 
     73 H73        29.6835   23.3118   -5.3757 H         1 UNK         0.0888 
     74 H74        28.8017   21.9041   -4.7774 H         1 UNK         0.0888 
     75 H75        30.7270   22.8888   -2.2387 H         1 UNK         0.3017 
     76 H76        29.5278   25.2099   -1.2693 H         1 UNK         0.0873 
     77 H77        30.7918   23.0987    0.5443 H         1 UNK         0.0745 
     78 H78        31.7451   24.0848   -0.5311 H         1 UNK         0.0745 
     79 H79        30.1194   23.7971    2.7845 H         1 UNK         0.0705 
     80 H80        31.8274   24.1575    2.9506 H         1 UNK         0.0705 
     81 H81        32.4419   26.5916    3.7589 H         1 UNK         0.1334 
     82 H82        29.6571   28.2926    6.5371 H         1 UNK         0.1417 
     83 H83        28.5579   24.8385    4.2435 H         1 UNK         0.1562 
     84 H84        27.4486   27.4870    6.7130 H         1 UNK         0.0748 
     85 H85        27.5178   25.7460    6.8327 H         1 UNK         0.0748 
     86 H86        27.4827   28.2986    4.0398 H         1 UNK         0.0940 
     87 H87        25.7827   28.5110    3.7626 H         1 UNK         0.0940 
     88 H88        27.5252   26.4153    2.3536 H         1 UNK         0.0703 
     89 H89        25.6479   25.5571    1.5522 H         1 UNK         0.3081 
     90 H90        22.9493   25.5812    1.9117 H         1 UNK         0.0719 
     91 H91        22.1472   27.6732   -0.1777 H         1 UNK         0.0809 
     92 H92        21.1494   26.3159    0.3432 H         1 UNK         0.0809 
     93 H93        21.5699   27.5851    1.4797 H         1 UNK         0.0809 
     94 H94        23.5350   24.2979    0.2049 H         1 UNK         0.2990 
     95 H95        23.4487   23.8056   -2.2126 H         1 UNK         0.0690 
     96 H96        24.8939   23.9447   -4.2290 H         1 UNK         0.0788 
     97 H97        25.6659   25.3983   -3.6012 H         1 UNK         0.0788 
     98 H98        23.9606   25.4192   -4.0270 H         1 UNK         0.0788 
     99 H99        26.3455   23.6317   -2.0358 H         1 UNK         0.2993 
    100 H100       26.5391   22.0949    1.0611 H         1 UNK         0.0949 
    101 H101       25.5989   20.0286    0.0001 H         1 UNK         0.0767 
    102 H102       26.5615   20.3186   -1.4424 H         1 UNK         0.0767 
    103 H103       27.3492   19.9533    0.0942 H         1 UNK         0.0767 
    104 H104       28.4134   21.9257   -1.0389 H         1 UNK         0.3013 
    105 H105       27.6095   26.7305   -0.0416 H         1 UNK         0.3121 
    106 H106       27.1863   29.3188   -1.1616 H         1 UNK         0.0774 
    107 H107       28.7568   26.9903   -2.3786 H         1 UNK         0.0815 
    108 H108       28.0212   28.3302   -3.2336 H         1 UNK         0.0815 
    109 H109       27.0011   27.1518   -2.4275 H         1 UNK         0.0815 
    110 H110       30.0381   28.0167    0.4059 H         1 UNK         0.2987 
    111 H111       31.9337   29.8185   -0.8991 H         1 UNK         0.0949 
    112 H112       32.2423   28.0459    1.5853 H         1 UNK         0.0806 
    113 H113       32.6275   27.5556   -0.0684 H         1 UNK         0.0806 
    114 H114       33.5476   28.8276    0.7139 H         1 UNK         0.0806 
    115 H115       33.2799   31.2889    0.3379 H         1 UNK         0.3010 
    116 H116       31.8863   33.1084    2.1382 H         1 UNK         0.0829 
    117 H117       33.5698   33.9093    0.4463 H         1 UNK         0.0813 
    118 H118       34.0789   34.3158    2.0736 H         1 UNK         0.0813 
    119 H119       34.8279   32.9622    1.2400 H         1 UNK         0.0813 
    120 H120       33.0225   33.7397    4.2048 H         1 UNK         0.3038 
    121 H121       33.0081   31.5800    6.0286 H         1 UNK         0.0769 
    122 H122       33.7816   34.5050    6.4677 H         1 UNK         0.0811 
    123 H123       33.3187   33.3582    7.7178 H         1 UNK         0.0811 
    124 H124       32.1411   33.8563    6.5210 H         1 UNK         0.0811 
    125 H125       35.1541   31.0871    4.2390 H         1 UNK         0.3204 
    126 H126       37.7175   31.3881    5.6251 H         1 UNK         0.0748 
    127 H127       38.5201   29.8750    3.8006 H         1 UNK         0.0771 
    128 H128       36.8652   29.6268    3.2578 H         1 UNK         0.0771 
    129 H129       37.6072   31.2224    3.1415 H         1 UNK         0.0771 
    130 H130       34.9962   29.3173    5.9274 H         1 UNK         0.2980 
    131 H131       36.2307   26.9772    7.0010 H         1 UNK         0.0545 
    132 H132       36.1789   29.5336   10.1331 H         1 UNK         0.3459 
    133 H133       35.9293   30.1127    8.5046 H         1 UNK         0.3459 
    134 H134       34.0280   26.7761    6.0513 H         1 UNK         0.0616 
    135 H135       33.8989   26.3995    7.7396 H         1 UNK         0.0616 
    136 H136       31.6634   29.6095    5.4463 H         1 UNK         0.0634 
    137 H137       32.9907   28.6515    4.8435 H         1 UNK         0.0634 
@<TRIPOS>BOND
     1    1    2 1    
     2    1   72 1    
     3    1   73 1    
     4    1   74 1    
     5    2    3 2    
     6    2    4 am   BACKBONE|DICT|INTERRES
     7    4    5 1    
     8    4   75 1    
     9    5    6 1    
    10    5   35 1    
    11    5   76 1    
    12    6    7 1    
    13    6   77 1    
    14    6   78 1    
    15    7    8 1    
    16    8    9 1    
    17    8   79 1    
    18    8   80 1    
    19    9   10 ar   
    20    9   14 ar   
    21   10   11 ar   
    22   10   81 1    
    23   11   12 ar   
    24   11   71 1    
    25   12   13 ar   
    26   12   82 1    
    27   13   14 ar   
    28   13   15 1    
    29   14   83 1    
    30   15   16 1    
    31   15   84 1    
    32   15   85 1    
    33   16   17 1    
    34   17   18 1    
    35   17   86 1    
    36   17   87 1    
    37   18   19 1    
    38   18   37 1    
    39   18   88 1    
    40   19   20 am   BACKBONE|DICT|INTERRES
    41   19   89 1    
    42   20   21 2    
    43   20   22 1    
    44   22   23 1    
    45   22   24 1    
    46   22   90 1    
    47   23   91 1    
    48   23   92 1    
    49   23   93 1    
    50   24   25 am   BACKBONE|DICT|INTERRES
    51   24   94 1    
    52   25   26 2    
    53   25   27 1    
    54   27   28 1    
    55   27   29 1    
    56   27   95 1    
    57   28   96 1    
    58   28   97 1    
    59   28   98 1    
    60   29   30 am   BACKBONE|DICT|INTERRES
    61   29   99 1    
    62   30   31 2    
    63   30   32 1    
    64   32   33 1    
    65   32   34 1    
    66   32  100 1    
    67   33  101 1    
    68   33  102 1    
    69   33  103 1    
    70   34   35 am   BACKBONE|DICT|INTERRES
    71   34  104 1    
    72   35   36 2    
    73   37   38 2    
    74   37   39 am   BACKBONE|DICT|INTERRES
    75   39   40 1    
    76   39  105 1    
    77   40   41 1    
    78   40   42 1    
    79   40  106 1    
    80   41  107 1    
    81   41  108 1    
    82   41  109 1    
    83   42   43 2    
    84   42   44 am   BACKBONE|DICT|INTERRES
    85   44   45 1    
    86   44  110 1    
    87   45   46 1    
    88   45   47 1    
    89   45  111 1    
    90   46  112 1    
    91   46  113 1    
    92   46  114 1    
    93   47   48 2    
    94   47   49 am   BACKBONE|DICT|INTERRES
    95   49   50 1    
    96   49  115 1    
    97   50   51 1    
    98   50   52 1    
    99   50  116 1    
   100   51  117 1    
   101   51  118 1    
   102   51  119 1    
   103   52   53 2    
   104   52   54 am   BACKBONE|DICT|INTERRES
   105   54   55 1    
   106   54  120 1    
   107   55   56 1    
   108   55   57 1    
   109   55  121 1    
   110   56  122 1    
   111   56  123 1    
   112   56  124 1    
   113   57   58 2    
   114   57   59 am   BACKBONE|DICT|INTERRES
   115   59   60 1    
   116   59  125 1    
   117   60   61 1    
   118   60   62 1    
   119   60  126 1    
   120   61  127 1    
   121   61  128 1    
   122   61  129 1    
   123   62   63 2    
   124   62   64 am   BACKBONE|DICT|INTERRES
   125   64   65 1    
   126   64  130 1    
   127   65   66 1    
   128   65   69 1    
   129   65  131 1    
   130   66   67 am   BACKBONE|DICT|INTERRES
   131   66   68 2    
   132   67  132 1    
   133   67  133 1    
   134   69   70 1    
   135   69  134 1    
   136   69  135 1    
   137   70   71 1    
   138   71  136 1    
   139   71  137 1    
@<TRIPOS>SUBSTRUCTURE
     1 UNK         1 GROUP             0       ****    0 ROOT    
