@<TRIPOS>MOLECULE
3R136
137   139    1
SMALL
USER_CHARGES


@<TRIPOS>ATOM
      1 CA         24.4636   24.4483    5.3632 C.3       0 UNK        -0.1979 
      2 C          25.2863   24.9579    4.1894 C.2       0 UNK         0.4864 
      3 O          25.2229   26.1455    3.8738 O.2       0 UNK        -0.5359 
      4 N          26.0431   24.0625    3.5355 N.am      1 UNK        -0.4318 
      5 CA         26.9579   24.3365    2.4121 C.3       1 UNK         0.0824 
      6 C6         28.1332   25.2822    2.7927 C.3       12 UNK        -0.0944 
      7 S7         29.1072   24.6516    4.2035 S.3       12 UNK        -0.2672 
      8 C8         30.5902   23.9902    3.3794 C.3       12 UNK         0.0333 
      9 C9         31.5248   25.1037    2.9309 C.ar      12 UNK        -0.0807 
     10 C10        32.3654   25.7262    3.8580 C.ar      12 UNK        -0.0894 
     11 C11        33.2135   26.7633    3.4609 C.ar      12 UNK        -0.0804 
     12 C12        33.2175   27.1774    2.1259 C.ar      12 UNK        -0.0824 
     13 C13        32.3828   26.5616    1.1898 C.ar      12 UNK        -0.0762 
     14 C14        31.5471   25.5165    1.5954 C.ar      12 UNK        -0.0782 
     15 C15        32.3823   27.0257   -0.2595 C.3       12 UNK         0.0230 
     16 S16        31.8407   28.7570   -0.4566 S.3       12 UNK        -0.2608 
     17 C17        30.1885   28.7957    0.3225 C.3       12 UNK        -0.0989 
     18 CA         29.0385   28.7169   -0.7137 C.3       5 UNK         0.0716 
     19 N          28.9713   27.3911   -1.3393 N.am      5 UNK        -0.4135 
     20 C          28.2347   27.0608   -2.4082 C.2       4 UNK         0.5031 
     21 O          27.4194   27.8138   -2.9415 O.2       4 UNK        -0.5229 
     22 CA         28.4682   25.6676   -3.0120 C.3       4 UNK         0.0329 
     23 CB         29.8164   25.0199   -2.6317 C.3       4 UNK        -0.2001 
     24 N          27.3767   24.7785   -2.6297 N.am      4 UNK        -0.4303 
     25 C          26.8195   23.8625   -3.4346 C.2       3 UNK         0.5044 
     26 O          27.1617   23.6862   -4.6052 O.2       3 UNK        -0.5152 
     27 CA         25.7090   22.9650   -2.8504 C.3       3 UNK         0.0319 
     28 CB         26.2321   21.5344   -2.6385 C.3       3 UNK        -0.2001 
     29 N          25.1556   23.4549   -1.5870 N.am      3 UNK        -0.4354 
     30 C          24.3702   24.5324   -1.4611 C.2       2 UNK         0.4964 
     31 O          23.9491   25.1867   -2.4151 O.2       2 UNK        -0.5047 
     32 CA         24.0069   24.9715   -0.0321 C.3       2 UNK         0.0288 
     33 CB         22.5781   24.5273    0.3204 C.3       2 UNK        -0.2113 
     34 N          24.9224   24.5079    1.0200 N.am      2 UNK        -0.4145 
     35 C          26.2291   24.7999    1.1268 C.2       1 UNK         0.5006 
     36 O          26.8563   25.4077    0.2544 O.2       1 UNK        -0.5103 
     37 C          27.7146   29.1895   -0.0758 C.2       5 UNK         0.5055 
     38 O          27.5020   30.4003    0.0047 O.2       5 UNK        -0.5220 
     39 N          26.8723   28.2528    0.3890 N.am      6 UNK        -0.4450 
     40 CA         25.6054   28.4795    1.1045 C.3       6 UNK         0.0367 
     41 CB         24.5586   29.1362    0.1801 C.3       6 UNK        -0.1929 
     42 C          25.7582   29.2123    2.4546 C.2       6 UNK         0.5070 
     43 O          24.7845   29.7746    2.9591 O.2       6 UNK        -0.5237 
     44 N          26.9673   29.1777    3.0234 N.am      7 UNK        -0.4739 
     45 CA         27.3534   29.7466    4.3074 C.3       7 UNK         0.0276 
     46 CB         27.3937   31.2857    4.2283 C.3       7 UNK        -0.1927 
     47 C          28.7382   29.1959    4.6608 C.2       7 UNK         0.5013 
     48 O          29.4958   28.8254    3.7588 O.2       7 UNK        -0.5193 
     49 N          29.0609   29.1914    5.9589 N.am      8 UNK        -0.4253 
     50 CA         30.3843   28.8522    6.4790 C.3       8 UNK         0.0242 
     51 CB         30.2499   28.3794    7.9380 C.3       8 UNK        -0.2000 
     52 C          31.3173   30.0673    6.3401 C.2       8 UNK         0.4948 
     53 O          31.4470   30.8570    7.2783 O.2       8 UNK        -0.5275 
     54 N          31.9017   30.2177    5.1463 N.am      9 UNK        -0.4246 
     55 CA         32.8621   31.2657    4.7904 C.3       9 UNK         0.0261 
     56 CB         32.9953   31.2872    3.2549 C.3       9 UNK        -0.1959 
     57 C          34.2340   31.0743    5.4721 C.2       9 UNK         0.5033 
     58 O          34.4556   30.0878    6.1787 O.2       9 UNK        -0.5390 
     59 N          35.1700   31.9932    5.2067 N.am      10 UNK        -0.4215 
     60 CA         36.5641   31.9215    5.6597 C.3       10 UNK         0.0240 
     61 CB         37.1414   33.3493    5.7182 C.3       10 UNK        -0.1982 
     62 C          37.4142   30.9691    4.7879 C.2       10 UNK         0.4970 
     63 O          38.4549   31.3788    4.2694 O.2       10 UNK        -0.4916 
     64 N          36.9497   29.7245    4.6194 N.am      11 UNK        -0.4279 
     65 CA         37.6562   28.6534    3.9004 C.3       11 UNK         0.1003 
     66 C          38.8548   28.0685    4.7013 C.2       11 UNK         0.5709 
     67 N          39.7700   27.3819    4.0300 N.am      11 UNK        -0.7358 
     68 O          38.9596   28.2142    5.9187 O.2       11 UNK        -0.4999 
     69 C69        36.6833   27.5586    3.3783 C.3       12 UNK        -0.0954 
     70 S70        35.7208   26.7036    4.6761 S.3       12 UNK        -0.2268 
     71 C71        34.0823   27.4691    4.4868 C.3       12 UNK         0.0203 
     72 H72        24.6046   23.3804    5.5286 H         1 UNK         0.0888 
     73 H73        24.7493   24.9727    6.2745 H         1 UNK         0.0888 
     74 H74        23.4039   24.6277    5.1845 H         1 UNK         0.0888 
     75 H75        26.0435   23.1040    3.8571 H         1 UNK         0.3017 
     76 H76        27.3957   23.3728    2.1479 H         1 UNK         0.0873 
     77 H77        28.7980   25.4359    1.9436 H         1 UNK         0.0745 
     78 H78        27.7619   26.2734    3.0565 H         1 UNK         0.0745 
     79 H79        31.1162   23.3354    4.0758 H         1 UNK         0.0705 
     80 H80        30.2938   23.3634    2.5369 H         1 UNK         0.0705 
     81 H81        32.3468   25.4126    4.8929 H         1 UNK         0.1334 
     82 H82        33.8546   27.9920    1.8119 H         1 UNK         0.1417 
     83 H83        30.9045   25.0295    0.8756 H         1 UNK         0.1562 
     84 H84        31.7558   26.3819   -0.8743 H         1 UNK         0.0748 
     85 H85        33.3929   26.9305   -0.6592 H         1 UNK         0.0748 
     86 H86        30.1397   29.7342    0.8797 H         1 UNK         0.0940 
     87 H87        30.0937   28.0114    1.0751 H         1 UNK         0.0940 
     88 H88        29.2554   29.4300   -1.5123 H         1 UNK         0.0703 
     89 H89        29.6001   26.6971   -0.9692 H         1 UNK         0.3081 
     90 H90        28.4631   25.8123   -4.0946 H         1 UNK         0.0719 
     91 H91        29.8716   24.7707   -1.5716 H         1 UNK         0.0809 
     92 H92        29.9707   24.0956   -3.1890 H         1 UNK         0.0809 
     93 H93        30.6519   25.6768   -2.8770 H         1 UNK         0.0809 
     94 H94        27.0216   24.8940   -1.6853 H         1 UNK         0.2990 
     95 H95        24.9017   22.9284   -3.5851 H         1 UNK         0.0690 
     96 H96        25.4412   20.8689   -2.2919 H         1 UNK         0.0788 
     97 H97        27.0425   21.5046   -1.9090 H         1 UNK         0.0788 
     98 H98        26.6175   21.1170   -3.5700 H         1 UNK         0.0788 
     99 H99        25.4399   22.9711   -0.7481 H         1 UNK         0.2993 
    100 H100       24.0302   26.0621   -0.0306 H         1 UNK         0.0949 
    101 H101       22.2628   24.9313    1.2829 H         1 UNK         0.0767 
    102 H102       21.8630   24.8794   -0.4248 H         1 UNK         0.0767 
    103 H103       22.4931   23.4408    0.3662 H         1 UNK         0.0767 
    104 H104       24.5000   23.9974    1.7818 H         1 UNK         0.3013 
    105 H105       27.1160   27.2743    0.2539 H         1 UNK         0.3121 
    106 H106       25.2276   27.4939    1.3702 H         1 UNK         0.0774 
    107 H107       23.5753   29.1522    0.6515 H         1 UNK         0.0815 
    108 H108       24.8203   30.1672   -0.0587 H         1 UNK         0.0815 
    109 H109       24.4588   28.5890   -0.7574 H         1 UNK         0.0815 
    110 H110       27.7214   28.6894    2.5570 H         1 UNK         0.2987 
    111 H111       26.6351   29.4255    5.0648 H         1 UNK         0.0949 
    112 H112       28.0788   31.6278    3.4512 H         1 UNK         0.0806 
    113 H113       26.4105   31.7037    4.0130 H         1 UNK         0.0806 
    114 H114       27.7261   31.7206    5.1716 H         1 UNK         0.0806 
    115 H115       28.3949   29.5481    6.6291 H         1 UNK         0.3010 
    116 H116       30.8032   28.0258    5.8990 H         1 UNK         0.0829 
    117 H117       29.6355   27.4815    8.0071 H         1 UNK         0.0813 
    118 H118       31.2269   28.1365    8.3578 H         1 UNK         0.0813 
    119 H119       29.8016   29.1424    8.5757 H         1 UNK         0.0813 
    120 H120       31.6745   29.5452    4.4253 H         1 UNK         0.3038 
    121 H121       32.4570   32.2241    5.1216 H         1 UNK         0.0769 
    122 H122       32.0225   31.4016    2.7755 H         1 UNK         0.0811 
    123 H123       33.4453   30.3709    2.8717 H         1 UNK         0.0811 
    124 H124       33.6128   32.1191    2.9153 H         1 UNK         0.0811 
    125 H125       34.9368   32.7627    4.5954 H         1 UNK         0.3204 
    126 H126       36.5850   31.5206    6.6756 H         1 UNK         0.0748 
    127 H127       38.1625   33.3436    6.1023 H         1 UNK         0.0771 
    128 H128       37.1653   33.8172    4.7331 H         1 UNK         0.0771 
    129 H129       36.5546   33.9875    6.3791 H         1 UNK         0.0771 
    130 H130       36.1133   29.4556    5.1256 H         1 UNK         0.2980 
    131 H131       38.0952   29.1165    3.0142 H         1 UNK         0.0545 
    132 H132       39.6970   27.2491    3.0334 H         1 UNK         0.3459 
    133 H133       40.5511   26.9886    4.5313 H         1 UNK         0.3459 
    134 H134       36.0007   28.0046    2.6558 H         1 UNK         0.0616 
    135 H135       37.2318   26.8005    2.8171 H         1 UNK         0.0616 
    136 H136       33.5822   27.4781    5.4566 H         1 UNK         0.0634 
    137 H137       34.2051   28.5088    4.1940 H         1 UNK         0.0634 
@<TRIPOS>BOND
     1    1    2 1    
     2    1   72 1    
     3    1   73 1    
     4    1   74 1    
     5    2    3 2    
     6    2    4 am   BACKBONE|DICT|INTERRES
     7    4    5 1    
     8    4   75 1    
     9    5    6 1    
    10    5   35 1    
    11    5   76 1    
    12    6    7 1    
    13    6   77 1    
    14    6   78 1    
    15    7    8 1    
    16    8    9 1    
    17    8   79 1    
    18    8   80 1    
    19    9   10 ar   
    20    9   14 ar   
    21   10   11 ar   
    22   10   81 1    
    23   11   12 ar   
    24   11   71 1    
    25   12   13 ar   
    26   12   82 1    
    27   13   14 ar   
    28   13   15 1    
    29   14   83 1    
    30   15   16 1    
    31   15   84 1    
    32   15   85 1    
    33   16   17 1    
    34   17   18 1    
    35   17   86 1    
    36   17   87 1    
    37   18   19 1    
    38   18   37 1    
    39   18   88 1    
    40   19   20 am   BACKBONE|DICT|INTERRES
    41   19   89 1    
    42   20   21 2    
    43   20   22 1    
    44   22   23 1    
    45   22   24 1    
    46   22   90 1    
    47   23   91 1    
    48   23   92 1    
    49   23   93 1    
    50   24   25 am   BACKBONE|DICT|INTERRES
    51   24   94 1    
    52   25   26 2    
    53   25   27 1    
    54   27   28 1    
    55   27   29 1    
    56   27   95 1    
    57   28   96 1    
    58   28   97 1    
    59   28   98 1    
    60   29   30 am   BACKBONE|DICT|INTERRES
    61   29   99 1    
    62   30   31 2    
    63   30   32 1    
    64   32   33 1    
    65   32   34 1    
    66   32  100 1    
    67   33  101 1    
    68   33  102 1    
    69   33  103 1    
    70   34   35 am   BACKBONE|DICT|INTERRES
    71   34  104 1    
    72   35   36 2    
    73   37   38 2    
    74   37   39 am   BACKBONE|DICT|INTERRES
    75   39   40 1    
    76   39  105 1    
    77   40   41 1    
    78   40   42 1    
    79   40  106 1    
    80   41  107 1    
    81   41  108 1    
    82   41  109 1    
    83   42   43 2    
    84   42   44 am   BACKBONE|DICT|INTERRES
    85   44   45 1    
    86   44  110 1    
    87   45   46 1    
    88   45   47 1    
    89   45  111 1    
    90   46  112 1    
    91   46  113 1    
    92   46  114 1    
    93   47   48 2    
    94   47   49 am   BACKBONE|DICT|INTERRES
    95   49   50 1    
    96   49  115 1    
    97   50   51 1    
    98   50   52 1    
    99   50  116 1    
   100   51  117 1    
   101   51  118 1    
   102   51  119 1    
   103   52   53 2    
   104   52   54 am   BACKBONE|DICT|INTERRES
   105   54   55 1    
   106   54  120 1    
   107   55   56 1    
   108   55   57 1    
   109   55  121 1    
   110   56  122 1    
   111   56  123 1    
   112   56  124 1    
   113   57   58 2    
   114   57   59 am   BACKBONE|DICT|INTERRES
   115   59   60 1    
   116   59  125 1    
   117   60   61 1    
   118   60   62 1    
   119   60  126 1    
   120   61  127 1    
   121   61  128 1    
   122   61  129 1    
   123   62   63 2    
   124   62   64 am   BACKBONE|DICT|INTERRES
   125   64   65 1    
   126   64  130 1    
   127   65   66 1    
   128   65   69 1    
   129   65  131 1    
   130   66   67 am   BACKBONE|DICT|INTERRES
   131   66   68 2    
   132   67  132 1    
   133   67  133 1    
   134   69   70 1    
   135   69  134 1    
   136   69  135 1    
   137   70   71 1    
   138   71  136 1    
   139   71  137 1    
@<TRIPOS>SUBSTRUCTURE
     1 UNK         1 GROUP             0       ****    0 ROOT    
