@<TRIPOS>MOLECULE
3R136
137   139    1
SMALL
USER_CHARGES


@<TRIPOS>ATOM
      1 CA         26.6028   18.6719   -0.8665 C.3       0 UNK        -0.1979 
      2 C          27.3775   19.8458   -0.2861 C.2       0 UNK         0.4864 
      3 O          27.5442   19.9227    0.9313 O.2       0 UNK        -0.5359 
      4 N          27.8395   20.7642   -1.1491 N.am      1 UNK        -0.4318 
      5 CA         28.6306   21.9616   -0.8169 C.3       1 UNK         0.0824 
      6 C6         29.9707   21.6120   -0.1099 C.3       12 UNK        -0.0944 
      7 S7         31.3422   22.7241   -0.5664 S.3       12 UNK        -0.2672 
      8 C8         32.4565   22.5280    0.8599 C.3       12 UNK         0.0333 
      9 C9         32.1466   23.5046    1.9882 C.ar      12 UNK        -0.0807 
     10 C10        32.8510   24.7085    2.0861 C.ar      12 UNK        -0.0894 
     11 C11        32.6315   25.5760    3.1604 C.ar      12 UNK        -0.0804 
     12 C12        31.6820   25.2440    4.1326 C.ar      12 UNK        -0.0824 
     13 C13        30.9576   24.0504    4.0382 C.ar      12 UNK        -0.0762 
     14 C14        31.2020   23.1839    2.9678 C.ar      12 UNK        -0.0782 
     15 C15        29.9432   23.6588    5.1094 C.3       12 UNK         0.0230 
     16 S16        28.6468   24.9103    5.3945 S.3       12 UNK        -0.2608 
     17 C17        27.9827   25.1875    3.7171 C.3       12 UNK        -0.0989 
     18 CA         28.3830   26.5878    3.1847 C.3       5 UNK         0.0716 
     19 N          28.6777   26.5686    1.7460 N.am      5 UNK        -0.4135 
     20 C          29.2032   27.5895    1.0497 C.2       4 UNK         0.5031 
     21 O          29.4178   28.7044    1.5206 O.2       4 UNK        -0.5229 
     22 CA         29.4877   27.3411   -0.4366 C.3       4 UNK         0.0329 
     23 CB         30.7161   26.4361   -0.6184 C.3       4 UNK        -0.2001 
     24 N          28.3195   26.7462   -1.0835 N.am      4 UNK        -0.4303 
     25 C          27.2619   27.4513   -1.5123 C.2       3 UNK         0.5044 
     26 O          27.2148   28.6814   -1.5233 O.2       3 UNK        -0.5152 
     27 CA         26.0343   26.6537   -1.9903 C.3       3 UNK         0.0319 
     28 CB         26.1219   26.3817   -3.5004 C.3       3 UNK        -0.2001 
     29 N          25.8494   25.3863   -1.2781 N.am      3 UNK        -0.4354 
     30 C          25.5980   25.2766    0.0349 C.2       2 UNK         0.4964 
     31 O          25.4491   26.2382    0.7869 O.2       2 UNK        -0.5047 
     32 CA         25.5608   23.8550    0.6196 C.3       2 UNK         0.0288 
     33 CB         24.1352   23.2843    0.5638 C.3       2 UNK        -0.2113 
     34 N          26.4862   22.9236   -0.0347 N.am      2 UNK        -0.4145 
     35 C          27.8214   23.0593   -0.0795 C.2       1 UNK         0.5006 
     36 O          28.4034   24.0346    0.4001 O.2       1 UNK        -0.5103 
     37 C          27.3785   27.6820    3.6170 C.2       5 UNK         0.5055 
     38 O          27.4375   28.1404    4.7586 O.2       5 UNK        -0.5220 
     39 N          26.5202   28.1397    2.6935 N.am      6 UNK        -0.4450 
     40 CA         25.6697   29.3269    2.8375 C.3       6 UNK         0.0367 
     41 CB         24.8226   29.4923    1.5654 C.3       6 UNK        -0.1929 
     42 C          26.4426   30.6303    3.1375 C.2       6 UNK         0.5070 
     43 O          25.8582   31.5530    3.7060 O.2       6 UNK        -0.5237 
     44 N          27.7320   30.6802    2.7794 N.am      7 UNK        -0.4739 
     45 CA         28.6699   31.7494    3.1048 C.3       7 UNK         0.0276 
     46 CB         28.9166   32.6081    1.8499 C.3       7 UNK        -0.1927 
     47 C          29.9600   31.1310    3.6693 C.2       7 UNK         0.5013 
     48 O          31.0516   31.4795    3.2165 O.2       7 UNK        -0.5193 
     49 N          29.8183   30.2268    4.6549 N.am      8 UNK        -0.4253 
     50 CA         30.9011   29.4533    5.2862 C.3       8 UNK         0.0242 
     51 CB         30.3455   28.6330    6.4616 C.3       8 UNK        -0.2000 
     52 C          32.1185   30.2745    5.7497 C.2       8 UNK         0.4948 
     53 O          33.2473   29.7939    5.6516 O.2       8 UNK        -0.5275 
     54 N          31.8735   31.5076    6.2127 N.am      9 UNK        -0.4246 
     55 CA         32.9013   32.4692    6.6145 C.3       9 UNK         0.0261 
     56 CB         32.2279   33.6531    7.3280 C.3       9 UNK        -0.1959 
     57 C          33.7848   32.9733    5.4559 C.2       9 UNK         0.5033 
     58 O          34.9031   33.4174    5.7212 O.2       9 UNK        -0.5390 
     59 N          33.2869   32.9177    4.2111 N.am      10 UNK        -0.4215 
     60 CA         34.0278   33.3227    3.0167 C.3       10 UNK         0.0240 
     61 CB         33.0550   33.7886    1.9195 C.3       10 UNK        -0.1982 
     62 C          34.9309   32.1904    2.5091 C.2       10 UNK         0.4970 
     63 O          36.1032   32.4445    2.2285 O.2       10 UNK        -0.4916 
     64 N          34.3812   30.9725    2.3953 N.am      11 UNK        -0.4279 
     65 CA         35.1307   29.7812    1.9630 C.3       11 UNK         0.1003 
     66 C          36.0689   29.1808    3.0476 C.2       11 UNK         0.5709 
     67 N          35.7965   29.3519    4.3352 N.am      11 UNK        -0.7358 
     68 O          37.0735   28.5589    2.7106 O.2       11 UNK        -0.4999 
     69 C69        34.2290   28.7066    1.2969 C.3       12 UNK        -0.0954 
     70 S70        32.7837   28.1996    2.2853 S.3       12 UNK        -0.2268 
     71 C71        33.4588   26.8448    3.2929 C.3       12 UNK         0.0203 
     72 H72        27.1004   17.7352   -0.6165 H         1 UNK         0.0888 
     73 H73        25.5958   18.6441   -0.4509 H         1 UNK         0.0888 
     74 H74        26.5206   18.7323   -1.9516 H         1 UNK         0.0888 
     75 H75        27.6596   20.6351   -2.1361 H         1 UNK         0.3017 
     76 H76        28.8722   22.3986   -1.7870 H         1 UNK         0.0873 
     77 H77        29.8389   21.5831    0.9709 H         1 UNK         0.0745 
     78 H78        30.2926   20.6077   -0.3900 H         1 UNK         0.0745 
     79 H79        33.4812   22.6782    0.5164 H         1 UNK         0.0705 
     80 H80        32.4138   21.5008    1.2254 H         1 UNK         0.0705 
     81 H81        33.5901   24.9615    1.3382 H         1 UNK         0.1334 
     82 H82        31.5115   25.9086    4.9685 H         1 UNK         0.1417 
     83 H83        30.6693   22.2459    2.9112 H         1 UNK         0.1562 
     84 H84        30.4727   23.4848    6.0469 H         1 UNK         0.0748 
     85 H85        29.4565   22.7158    4.8552 H         1 UNK         0.0748 
     86 H86        26.8993   25.0538    3.7301 H         1 UNK         0.0940 
     87 H87        28.3615   24.3997    3.0646 H         1 UNK         0.0940 
     88 H88        29.3332   26.8699    3.6434 H         1 UNK         0.0703 
     89 H89        28.5512   25.6776    1.2711 H         1 UNK         0.3081 
     90 H90        29.7083   28.3013   -0.9084 H         1 UNK         0.0719 
     91 H91        30.6063   25.4918   -0.0860 H         1 UNK         0.0809 
     92 H92        30.8981   26.2117   -1.6692 H         1 UNK         0.0809 
     93 H93        31.6128   26.9189   -0.2287 H         1 UNK         0.0809 
     94 H94        28.2576   25.7372   -1.0632 H         1 UNK         0.2990 
     95 H95        25.1517   27.2695   -1.8039 H         1 UNK         0.0690 
     96 H96        26.9737   25.7473   -3.7492 H         1 UNK         0.0788 
     97 H97        26.2356   27.3127   -4.0578 H         1 UNK         0.0788 
     98 H98        25.2193   25.8942   -3.8695 H         1 UNK         0.0788 
     99 H99        25.9473   24.5399   -1.8193 H         1 UNK         0.2993 
    100 H100       25.8586   23.9291    1.6674 H         1 UNK         0.0949 
    101 H101       23.7898   23.1559   -0.4628 H         1 UNK         0.0767 
    102 H102       24.0755   22.3167    1.0627 H         1 UNK         0.0767 
    103 H103       23.4295   23.9488    1.0649 H         1 UNK         0.0767 
    104 H104       26.0826   22.0966   -0.4491 H         1 UNK         0.3013 
    105 H105       26.4513   27.6393    1.8128 H         1 UNK         0.3121 
    106 H106       24.9982   29.1478    3.6794 H         1 UNK         0.0774 
    107 H107       24.1730   30.3658    1.6371 H         1 UNK         0.0815 
    108 H108       25.4478   29.6205    0.6806 H         1 UNK         0.0815 
    109 H109       24.1812   28.6266    1.4000 H         1 UNK         0.0815 
    110 H110       28.1536   29.8715    2.3242 H         1 UNK         0.2987 
    111 H111       28.2614   32.3908    3.8886 H         1 UNK         0.0949 
    112 H112       29.3579   32.0195    1.0443 H         1 UNK         0.0806 
    113 H113       27.9887   33.0431    1.4787 H         1 UNK         0.0806 
    114 H114       29.5981   33.4320    2.0656 H         1 UNK         0.0806 
    115 H115       28.8771   29.9650    4.9208 H         1 UNK         0.3010 
    116 H116       31.2556   28.7478    4.5371 H         1 UNK         0.0829 
    117 H117       31.1426   28.0926    6.9745 H         1 UNK         0.0813 
    118 H118       29.8519   29.2659    7.1998 H         1 UNK         0.0813 
    119 H119       29.6286   27.8859    6.1241 H         1 UNK         0.0813 
    120 H120       30.9140   31.8185    6.2551 H         1 UNK         0.3038 
    121 H121       33.5602   31.9704    7.3285 H         1 UNK         0.0769 
    122 H122       32.9703   34.3753    7.6711 H         1 UNK         0.0811 
    123 H123       31.6705   33.3244    8.2054 H         1 UNK         0.0811 
    124 H124       31.5390   34.1831    6.6690 H         1 UNK         0.0811 
    125 H125       32.3811   32.4809    4.0508 H         1 UNK         0.3204 
    126 H126       34.6658   34.1729    3.2685 H         1 UNK         0.0748 
    127 H127       33.6008   34.1686    1.0550 H         1 UNK         0.0771 
    128 H128       32.4145   32.9802    1.5660 H         1 UNK         0.0771 
    129 H129       32.4115   34.5932    2.2758 H         1 UNK         0.0771 
    130 H130       33.4131   30.8291    2.6505 H         1 UNK         0.2980 
    131 H131       35.8054   30.1127    1.1708 H         1 UNK         0.0545 
    132 H132       34.9173   29.7588    4.6383 H         1 UNK         0.3459 
    133 H133       36.4241   28.9658    5.0211 H         1 UNK         0.3459 
    134 H134       33.8391   29.1086    0.3608 H         1 UNK         0.0616 
    135 H135       34.8072   27.8264    1.0099 H         1 UNK         0.0616 
    136 H136       33.4941   27.1710    4.3336 H         1 UNK         0.0634 
    137 H137       34.4903   26.6316    3.0108 H         1 UNK         0.0634 
@<TRIPOS>BOND
     1    1    2 1    
     2    1   72 1    
     3    1   73 1    
     4    1   74 1    
     5    2    3 2    
     6    2    4 am   BACKBONE|DICT|INTERRES
     7    4    5 1    
     8    4   75 1    
     9    5    6 1    
    10    5   35 1    
    11    5   76 1    
    12    6    7 1    
    13    6   77 1    
    14    6   78 1    
    15    7    8 1    
    16    8    9 1    
    17    8   79 1    
    18    8   80 1    
    19    9   10 ar   
    20    9   14 ar   
    21   10   11 ar   
    22   10   81 1    
    23   11   12 ar   
    24   11   71 1    
    25   12   13 ar   
    26   12   82 1    
    27   13   14 ar   
    28   13   15 1    
    29   14   83 1    
    30   15   16 1    
    31   15   84 1    
    32   15   85 1    
    33   16   17 1    
    34   17   18 1    
    35   17   86 1    
    36   17   87 1    
    37   18   19 1    
    38   18   37 1    
    39   18   88 1    
    40   19   20 am   BACKBONE|DICT|INTERRES
    41   19   89 1    
    42   20   21 2    
    43   20   22 1    
    44   22   23 1    
    45   22   24 1    
    46   22   90 1    
    47   23   91 1    
    48   23   92 1    
    49   23   93 1    
    50   24   25 am   BACKBONE|DICT|INTERRES
    51   24   94 1    
    52   25   26 2    
    53   25   27 1    
    54   27   28 1    
    55   27   29 1    
    56   27   95 1    
    57   28   96 1    
    58   28   97 1    
    59   28   98 1    
    60   29   30 am   BACKBONE|DICT|INTERRES
    61   29   99 1    
    62   30   31 2    
    63   30   32 1    
    64   32   33 1    
    65   32   34 1    
    66   32  100 1    
    67   33  101 1    
    68   33  102 1    
    69   33  103 1    
    70   34   35 am   BACKBONE|DICT|INTERRES
    71   34  104 1    
    72   35   36 2    
    73   37   38 2    
    74   37   39 am   BACKBONE|DICT|INTERRES
    75   39   40 1    
    76   39  105 1    
    77   40   41 1    
    78   40   42 1    
    79   40  106 1    
    80   41  107 1    
    81   41  108 1    
    82   41  109 1    
    83   42   43 2    
    84   42   44 am   BACKBONE|DICT|INTERRES
    85   44   45 1    
    86   44  110 1    
    87   45   46 1    
    88   45   47 1    
    89   45  111 1    
    90   46  112 1    
    91   46  113 1    
    92   46  114 1    
    93   47   48 2    
    94   47   49 am   BACKBONE|DICT|INTERRES
    95   49   50 1    
    96   49  115 1    
    97   50   51 1    
    98   50   52 1    
    99   50  116 1    
   100   51  117 1    
   101   51  118 1    
   102   51  119 1    
   103   52   53 2    
   104   52   54 am   BACKBONE|DICT|INTERRES
   105   54   55 1    
   106   54  120 1    
   107   55   56 1    
   108   55   57 1    
   109   55  121 1    
   110   56  122 1    
   111   56  123 1    
   112   56  124 1    
   113   57   58 2    
   114   57   59 am   BACKBONE|DICT|INTERRES
   115   59   60 1    
   116   59  125 1    
   117   60   61 1    
   118   60   62 1    
   119   60  126 1    
   120   61  127 1    
   121   61  128 1    
   122   61  129 1    
   123   62   63 2    
   124   62   64 am   BACKBONE|DICT|INTERRES
   125   64   65 1    
   126   64  130 1    
   127   65   66 1    
   128   65   69 1    
   129   65  131 1    
   130   66   67 am   BACKBONE|DICT|INTERRES
   131   66   68 2    
   132   67  132 1    
   133   67  133 1    
   134   69   70 1    
   135   69  134 1    
   136   69  135 1    
   137   70   71 1    
   138   71  136 1    
   139   71  137 1    
@<TRIPOS>SUBSTRUCTURE
     1 UNK         1 GROUP             0       ****    0 ROOT    
