@<TRIPOS>MOLECULE
3R136
137   139    1
SMALL
USER_CHARGES


@<TRIPOS>ATOM
      1 CA         30.3462   18.5594   -1.8744 C.3       0 UNK        -0.1979 
      2 C          30.3886   20.0679   -1.6821 C.2       0 UNK         0.4864 
      3 O          30.9246   20.7807   -2.5333 O.2       0 UNK        -0.5359 
      4 N          29.8235   20.5657   -0.5742 N.am      1 UNK        -0.4318 
      5 CA         29.7694   21.9871   -0.2110 C.3       1 UNK         0.0824 
      6 C6         29.6162   22.1866    1.3191 C.3       12 UNK        -0.0944 
      7 S7         31.0616   21.5306    2.2176 S.3       12 UNK        -0.2672 
      8 C8         30.4025   21.3519    3.9070 C.3       12 UNK         0.0333 
      9 C9         30.0653   22.6872    4.5617 C.ar      12 UNK        -0.0807 
     10 C10        31.0188   23.7092    4.6288 C.ar      12 UNK        -0.0894 
     11 C11        30.7121   24.9262    5.2433 C.ar      12 UNK        -0.0804 
     12 C12        29.4520   25.1137    5.8158 C.ar      12 UNK        -0.0824 
     13 C13        28.4937   24.0997    5.7612 C.ar      12 UNK        -0.0762 
     14 C14        28.8035   22.8904    5.1302 C.ar      12 UNK        -0.0782 
     15 C15        27.1261   24.3046    6.3909 C.3       12 UNK         0.0230 
     16 S16        25.9048   24.8426    5.1577 S.3       12 UNK        -0.2608 
     17 C17        26.2349   26.6375    5.0109 C.3       12 UNK        -0.0989 
     18 CA         27.0535   27.0576    3.7519 C.3       5 UNK         0.0716 
     19 N          26.6234   26.3997    2.5101 N.am      5 UNK        -0.4135 
     20 C          25.3970   26.3888    1.9681 C.2       4 UNK         0.5031 
     21 O          24.4234   26.9742    2.4454 O.2       4 UNK        -0.5229 
     22 CA         25.2664   25.6184    0.6395 C.3       4 UNK         0.0329 
     23 CB         23.9509   25.9268   -0.1065 C.3       4 UNK        -0.2001 
     24 N          26.4196   25.8137   -0.2508 N.am      4 UNK        -0.4303 
     25 C          26.8819   26.9834   -0.7266 C.2       3 UNK         0.5044 
     26 O          26.4139   28.0766   -0.4101 O.2       3 UNK        -0.5152 
     27 CA         28.0906   26.9527   -1.6842 C.3       3 UNK         0.0319 
     28 CB         29.3358   27.5154   -0.9788 C.3       3 UNK        -0.2001 
     29 N          28.4011   25.6219   -2.2120 N.am      3 UNK        -0.4354 
     30 C          27.6309   24.9261   -3.0614 C.2       2 UNK         0.4964 
     31 O          26.6240   25.3855   -3.6009 O.2       2 UNK        -0.5047 
     32 CA         28.0231   23.4604   -3.3331 C.3       2 UNK         0.0288 
     33 CB         28.6701   23.3266   -4.7215 C.3       2 UNK        -0.2113 
     34 N          28.9134   22.8530   -2.3344 N.am      2 UNK        -0.4145 
     35 C          28.6748   22.7137   -1.0217 C.2       1 UNK         0.5006 
     36 O          27.6565   23.1317   -0.4651 O.2       1 UNK        -0.5103 
     37 C          27.1380   28.6025    3.6442 C.2       5 UNK         0.5055 
     38 O          27.5552   29.2414    4.6117 O.2       5 UNK        -0.5220 
     39 N          26.7511   29.1943    2.5023 N.am      6 UNK        -0.4450 
     40 CA         26.5801   30.6418    2.3301 C.3       6 UNK         0.0367 
     41 CB         25.5844   30.8957    1.1858 C.3       6 UNK        -0.1929 
     42 C          27.8863   31.4185    2.0885 C.2       6 UNK         0.5070 
     43 O          27.8507   32.6493    2.0818 O.2       6 UNK        -0.5237 
     44 N          29.0095   30.7141    1.8876 N.am      7 UNK        -0.4739 
     45 CA         30.3301   31.3076    1.6448 C.3       7 UNK         0.0276 
     46 CB         31.2898   30.2231    1.1299 C.3       7 UNK        -0.1927 
     47 C          30.9253   32.0492    2.8583 C.2       7 UNK         0.5013 
     48 O          31.8044   32.8909    2.6649 O.2       7 UNK        -0.5193 
     49 N          30.4399   31.7393    4.0722 N.am      8 UNK        -0.4253 
     50 CA         30.7849   32.3669    5.3545 C.3       8 UNK         0.0242 
     51 CB         30.1236   33.7604    5.4523 C.3       8 UNK        -0.2000 
     52 C          32.3052   32.3765    5.6076 C.2       8 UNK         0.4948 
     53 O          32.8855   31.3096    5.8060 O.2       8 UNK        -0.5275 
     54 N          32.9357   33.5578    5.5531 N.am      9 UNK        -0.4246 
     55 CA         34.3826   33.7476    5.6964 C.3       9 UNK         0.0261 
     56 CB         34.6949   35.2525    5.7257 C.3       9 UNK        -0.1959 
     57 C          35.2231   33.0452    4.6119 C.2       9 UNK         0.5033 
     58 O          36.3718   32.6940    4.8848 O.2       9 UNK        -0.5390 
     59 N          34.6470   32.8325    3.4197 N.am      10 UNK        -0.4215 
     60 CA         35.2796   32.1082    2.3142 C.3       10 UNK         0.0240 
     61 CB         34.7931   32.7025    0.9805 C.3       10 UNK        -0.1982 
     62 C          35.0283   30.5886    2.3675 C.2       10 UNK         0.4970 
     63 O          35.5723   29.8725    1.5261 O.2       10 UNK        -0.4916 
     64 N          34.2145   30.1138    3.3227 N.am      11 UNK        -0.4279 
     65 CA         33.8833   28.6918    3.5075 C.3       11 UNK         0.1003 
     66 C          35.0428   27.8314    4.0923 C.2       11 UNK         0.5709 
     67 N          36.0754   28.4238    4.6819 N.am      11 UNK        -0.7358 
     68 O          35.0156   26.6075    3.9953 O.2       11 UNK        -0.4999 
     69 C69        32.5757   28.5403    4.3306 C.3       12 UNK        -0.0954 
     70 S70        31.5485   27.1235    3.8310 S.3       12 UNK        -0.2268 
     71 C71        31.7337   26.0472    5.2824 C.3       12 UNK         0.0203 
     72 H72        29.8475   18.0566   -1.0459 H         1 UNK         0.0888 
     73 H73        29.8124   18.3133   -2.7919 H         1 UNK         0.0888 
     74 H74        31.3583   18.1631   -1.9515 H         1 UNK         0.0888 
     75 H75        29.3890   19.9352    0.0845 H         1 UNK         0.3017 
     76 H76        30.7179   22.4482   -0.4972 H         1 UNK         0.0873 
     77 H77        28.7080   21.7036    1.6850 H         1 UNK         0.0745 
     78 H78        29.5251   23.2465    1.5660 H         1 UNK         0.0745 
     79 H79        29.5304   20.6967    3.8782 H         1 UNK         0.0705 
     80 H80        31.1479   20.8433    4.5197 H         1 UNK         0.0705 
     81 H81        31.9966   23.5618    4.1903 H         1 UNK         0.1334 
     82 H82        29.2143   26.0544    6.2938 H         1 UNK         0.1417 
     83 H83        28.0594   22.1063    5.0882 H         1 UNK         0.1562 
     84 H84        27.1753   25.0221    7.2114 H         1 UNK         0.0748 
     85 H85        26.7856   23.3668    6.8326 H         1 UNK         0.0748 
     86 H86        26.7348   26.9847    5.9168 H         1 UNK         0.0940 
     87 H87        25.2639   27.1366    5.0081 H         1 UNK         0.0940 
     88 H88        28.0802   26.7231    3.9044 H         1 UNK         0.0703 
     89 H89        27.3461   25.8884    2.0248 H         1 UNK         0.3081 
     90 H90        25.2582   24.5593    0.9019 H         1 UNK         0.0719 
     91 H91        23.8768   25.3544   -1.0313 H         1 UNK         0.0809 
     92 H92        23.8678   26.9844   -0.3593 H         1 UNK         0.0809 
     93 H93        23.0847   25.6690    0.5041 H         1 UNK         0.0809 
     94 H94        26.8985   24.9598   -0.5237 H         1 UNK         0.2990 
     95 H95        27.8497   27.6032   -2.5275 H         1 UNK         0.0690 
     96 H96        30.1843   27.5808   -1.6602 H         1 UNK         0.0788 
     97 H97        29.6330   26.9028   -0.1266 H         1 UNK         0.0788 
     98 H98        29.1449   28.5225   -0.6060 H         1 UNK         0.0788 
     99 H99        29.2216   25.1677   -1.8395 H         1 UNK         0.2993 
    100 H100       27.0964   22.8827   -3.3296 H         1 UNK         0.0949 
    101 H101       28.0211   23.7337   -5.4983 H         1 UNK         0.0767 
    102 H102       29.6198   23.8607   -4.7758 H         1 UNK         0.0767 
    103 H103       28.8573   22.2823   -4.9732 H         1 UNK         0.0767 
    104 H104       29.7548   22.4078   -2.6900 H         1 UNK         0.3013 
    105 H105       26.4522   28.6169    1.7244 H         1 UNK         0.3121 
    106 H106       26.1398   31.0414    3.2463 H         1 UNK         0.0774 
    107 H107       25.3335   31.9549    1.1148 H         1 UNK         0.0815 
    108 H108       25.9939   30.5963    0.2207 H         1 UNK         0.0815 
    109 H109       24.6517   30.3522    1.3391 H         1 UNK         0.0815 
    110 H110       28.9492   29.7068    1.9056 H         1 UNK         0.2987 
    111 H111       30.2187   32.0547    0.8557 H         1 UNK         0.0949 
    112 H112       31.3456   29.3730    1.8078 H         1 UNK         0.0806 
    113 H113       30.9783   29.8526    0.1542 H         1 UNK         0.0806 
    114 H114       32.3002   30.6132    1.0091 H         1 UNK         0.0806 
    115 H115       29.7380   31.0129    4.1166 H         1 UNK         0.3010 
    116 H116       30.3522   31.7392    6.1351 H         1 UNK         0.0829 
    117 H117       29.0390   33.6793    5.3766 H         1 UNK         0.0813 
    118 H118       30.3395   34.2365    6.4099 H         1 UNK         0.0813 
    119 H119       30.4528   34.4332    4.6594 H         1 UNK         0.0813 
    120 H120       32.3858   34.3813    5.3547 H         1 UNK         0.3038 
    121 H121       34.6747   33.3194    6.6577 H         1 UNK         0.0769 
    122 H122       35.7635   35.4267    5.8604 H         1 UNK         0.0811 
    123 H123       34.1821   35.7496    6.5494 H         1 UNK         0.0811 
    124 H124       34.3993   35.7445    4.7980 H         1 UNK         0.0811 
    125 H125       33.6776   33.1080    3.2784 H         1 UNK         0.3204 
    126 H126       36.3612   32.2516    2.3621 H         1 UNK         0.0748 
    127 H127       35.2845   32.2216    0.1337 H         1 UNK         0.0771 
    128 H128       33.7189   32.5789    0.8454 H         1 UNK         0.0771 
    129 H129       35.0161   33.7678    0.9184 H         1 UNK         0.0771 
    130 H130       33.8349   30.7456    4.0178 H         1 UNK         0.2980 
    131 H131       33.6933   28.2955    2.5081 H         1 UNK         0.0545 
    132 H132       36.1111   29.4271    4.7671 H         1 UNK         0.3459 
    133 H133       36.8240   27.8580    5.0493 H         1 UNK         0.3459 
    134 H134       31.9386   29.4110    4.1836 H         1 UNK         0.0616 
    135 H135       32.7803   28.5173    5.4026 H         1 UNK         0.0616 
    136 H136       32.7464   25.6426    5.3107 H         1 UNK         0.0634 
    137 H137       31.6040   26.6308    6.1951 H         1 UNK         0.0634 
@<TRIPOS>BOND
     1    1    2 1    
     2    1   72 1    
     3    1   73 1    
     4    1   74 1    
     5    2    3 2    
     6    2    4 am   BACKBONE|DICT|INTERRES
     7    4    5 1    
     8    4   75 1    
     9    5    6 1    
    10    5   35 1    
    11    5   76 1    
    12    6    7 1    
    13    6   77 1    
    14    6   78 1    
    15    7    8 1    
    16    8    9 1    
    17    8   79 1    
    18    8   80 1    
    19    9   10 ar   
    20    9   14 ar   
    21   10   11 ar   
    22   10   81 1    
    23   11   12 ar   
    24   11   71 1    
    25   12   13 ar   
    26   12   82 1    
    27   13   14 ar   
    28   13   15 1    
    29   14   83 1    
    30   15   16 1    
    31   15   84 1    
    32   15   85 1    
    33   16   17 1    
    34   17   18 1    
    35   17   86 1    
    36   17   87 1    
    37   18   19 1    
    38   18   37 1    
    39   18   88 1    
    40   19   20 am   BACKBONE|DICT|INTERRES
    41   19   89 1    
    42   20   21 2    
    43   20   22 1    
    44   22   23 1    
    45   22   24 1    
    46   22   90 1    
    47   23   91 1    
    48   23   92 1    
    49   23   93 1    
    50   24   25 am   BACKBONE|DICT|INTERRES
    51   24   94 1    
    52   25   26 2    
    53   25   27 1    
    54   27   28 1    
    55   27   29 1    
    56   27   95 1    
    57   28   96 1    
    58   28   97 1    
    59   28   98 1    
    60   29   30 am   BACKBONE|DICT|INTERRES
    61   29   99 1    
    62   30   31 2    
    63   30   32 1    
    64   32   33 1    
    65   32   34 1    
    66   32  100 1    
    67   33  101 1    
    68   33  102 1    
    69   33  103 1    
    70   34   35 am   BACKBONE|DICT|INTERRES
    71   34  104 1    
    72   35   36 2    
    73   37   38 2    
    74   37   39 am   BACKBONE|DICT|INTERRES
    75   39   40 1    
    76   39  105 1    
    77   40   41 1    
    78   40   42 1    
    79   40  106 1    
    80   41  107 1    
    81   41  108 1    
    82   41  109 1    
    83   42   43 2    
    84   42   44 am   BACKBONE|DICT|INTERRES
    85   44   45 1    
    86   44  110 1    
    87   45   46 1    
    88   45   47 1    
    89   45  111 1    
    90   46  112 1    
    91   46  113 1    
    92   46  114 1    
    93   47   48 2    
    94   47   49 am   BACKBONE|DICT|INTERRES
    95   49   50 1    
    96   49  115 1    
    97   50   51 1    
    98   50   52 1    
    99   50  116 1    
   100   51  117 1    
   101   51  118 1    
   102   51  119 1    
   103   52   53 2    
   104   52   54 am   BACKBONE|DICT|INTERRES
   105   54   55 1    
   106   54  120 1    
   107   55   56 1    
   108   55   57 1    
   109   55  121 1    
   110   56  122 1    
   111   56  123 1    
   112   56  124 1    
   113   57   58 2    
   114   57   59 am   BACKBONE|DICT|INTERRES
   115   59   60 1    
   116   59  125 1    
   117   60   61 1    
   118   60   62 1    
   119   60  126 1    
   120   61  127 1    
   121   61  128 1    
   122   61  129 1    
   123   62   63 2    
   124   62   64 am   BACKBONE|DICT|INTERRES
   125   64   65 1    
   126   64  130 1    
   127   65   66 1    
   128   65   69 1    
   129   65  131 1    
   130   66   67 am   BACKBONE|DICT|INTERRES
   131   66   68 2    
   132   67  132 1    
   133   67  133 1    
   134   69   70 1    
   135   69  134 1    
   136   69  135 1    
   137   70   71 1    
   138   71  136 1    
   139   71  137 1    
@<TRIPOS>SUBSTRUCTURE
     1 UNK         1 GROUP             0       ****    0 ROOT    
