@<TRIPOS>MOLECULE
3R136
137   139    1
SMALL
USER_CHARGES


@<TRIPOS>ATOM
      1 CA         33.0470   24.2862   -0.4305 C.3       0 UNK        -0.1979 
      2 C          31.6285   24.0846    0.0789 C.2       0 UNK         0.4864 
      3 O          30.7867   24.9612   -0.1139 O.2       0 UNK        -0.5359 
      4 N          31.3557   22.9291    0.7031 N.am      1 UNK        -0.4318 
      5 CA         30.0989   22.5331    1.3644 C.3       1 UNK         0.0824 
      6 C6         30.2153   21.0636    1.8608 C.3       12 UNK        -0.0944 
      7 S7         28.9485   20.5464    3.0723 S.3       12 UNK        -0.2672 
      8 C8         29.8036   20.8045    4.6624 C.3       12 UNK         0.0333 
      9 C9         30.0915   22.2787    4.8964 C.ar      12 UNK        -0.0807 
     10 C10        31.4009   22.7630    4.8532 C.ar      12 UNK        -0.0894 
     11 C11        31.6535   24.1320    4.9802 C.ar      12 UNK        -0.0804 
     12 C12        30.5856   25.0208    5.1461 C.ar      12 UNK        -0.0824 
     13 C13        29.2711   24.5437    5.2015 C.ar      12 UNK        -0.0762 
     14 C14        29.0358   23.1691    5.1023 C.ar      12 UNK        -0.0782 
     15 C15        28.0980   25.5069    5.3215 C.3       12 UNK         0.0230 
     16 S16        26.9771   25.3212    3.8980 S.3       12 UNK        -0.2608 
     17 C17        26.0560   26.8955    3.8982 C.3       12 UNK        -0.0989 
     18 CA         26.9012   28.1461    3.5230 C.3       5 UNK         0.0716 
     19 N          27.9869   27.8521    2.5840 N.am      5 UNK        -0.4135 
     20 C          28.9966   28.6790    2.2891 C.2       4 UNK         0.5031 
     21 O          29.1174   29.8104    2.7571 O.2       4 UNK        -0.5229 
     22 CA         30.0247   28.1726    1.2656 C.3       4 UNK         0.0329 
     23 CB         31.1482   27.3995    1.9749 C.3       4 UNK        -0.2001 
     24 N          29.4569   27.3431    0.1942 N.am      4 UNK        -0.4303 
     25 C          28.4800   27.7249   -0.6423 C.2       3 UNK         0.5044 
     26 O          27.8765   28.7938   -0.5321 O.2       3 UNK        -0.5152 
     27 CA         28.0973   26.7881   -1.7978 C.3       3 UNK         0.0319 
     28 CB         28.8623   27.1792   -3.0736 C.3       3 UNK        -0.2001 
     29 N          28.3053   25.3583   -1.5264 N.am      3 UNK        -0.4354 
     30 C          27.4488   24.4002   -1.9194 C.2       2 UNK         0.4964 
     31 O          26.3585   24.6402   -2.4410 O.2       2 UNK        -0.5047 
     32 CA         27.8574   22.9203   -1.7622 C.3       2 UNK         0.0288 
     33 CB         28.2654   22.3344   -3.1248 C.3       2 UNK        -0.2113 
     34 N          28.9383   22.6768   -0.8081 N.am      2 UNK        -0.4145 
     35 C          28.8173   22.7620    0.5236 C.2       1 UNK         0.5006 
     36 O          27.7563   23.0362    1.0856 O.2       1 UNK        -0.5103 
     37 C          25.9896   29.2762    3.0046 C.2       5 UNK         0.5055 
     38 O          25.5904   30.1423    3.7832 O.2       5 UNK        -0.5220 
     39 N          25.6915   29.2497    1.6965 N.am      6 UNK        -0.4450 
     40 CA         24.8864   30.2568    1.0021 C.3       6 UNK         0.0367 
     41 CB         24.3902   29.6860   -0.3363 C.3       6 UNK        -0.1929 
     42 C          25.6663   31.5613    0.7808 C.2       6 UNK         0.5070 
     43 O          25.0854   32.6413    0.8875 O.2       6 UNK        -0.5237 
     44 N          26.9723   31.4390    0.5055 N.am      7 UNK        -0.4739 
     45 CA         27.9084   32.5601    0.3850 C.3       7 UNK         0.0276 
     46 CB         29.2034   32.0538   -0.2714 C.3       7 UNK        -0.1927 
     47 C          28.2269   33.2446    1.7289 C.2       7 UNK         0.5013 
     48 O          28.7108   34.3771    1.7171 O.2       7 UNK        -0.5193 
     49 N          27.9736   32.5408    2.8441 N.am      8 UNK        -0.4253 
     50 CA         28.3306   32.8795    4.2269 C.3       8 UNK         0.0242 
     51 CB         27.5649   34.1287    4.7126 C.3       8 UNK        -0.2000 
     52 C          29.8578   32.9866    4.4030 C.2       8 UNK         0.4948 
     53 O          30.3517   33.9473    4.9978 O.2       8 UNK        -0.5275 
     54 N          30.5719   32.0022    3.8468 N.am      9 UNK        -0.4246 
     55 CA         32.0278   31.9257    3.7897 C.3       9 UNK         0.0261 
     56 CB         32.4419   31.8740    2.3079 C.3       9 UNK        -0.1959 
     57 C          32.5252   30.6731    4.5222 C.2       9 UNK         0.5033 
     58 O          31.7502   29.7476    4.7754 O.2       9 UNK        -0.5390 
     59 N          33.8293   30.6556    4.8154 N.am      10 UNK        -0.4215 
     60 CA         34.5546   29.4713    5.2723 C.3       10 UNK         0.0240 
     61 CB         35.6976   29.9106    6.2028 C.3       10 UNK        -0.1982 
     62 C          35.1108   28.7132    4.0572 C.2       10 UNK         0.4970 
     63 O          35.3932   29.3312    3.0273 O.2       10 UNK        -0.4916 
     64 N          35.2922   27.3981    4.2127 N.am      11 UNK        -0.4279 
     65 CA         35.8685   26.5145    3.1846 C.3       11 UNK         0.1003 
     66 C          37.4174   26.6098    3.0486 C.2       11 UNK         0.5709 
     67 N          38.1285   27.2875    3.9426 N.am      11 UNK        -0.7358 
     68 O          37.9848   26.0648    2.1048 O.2       11 UNK        -0.4999 
     69 C69        35.4150   25.0449    3.3789 C.3       12 UNK        -0.0954 
     70 S70        33.6143   24.8366    3.1880 S.3       12 UNK        -0.2268 
     71 C71        33.0834   24.6405    4.9140 C.3       12 UNK         0.0203 
     72 H72        33.7034   23.4635   -0.1480 H         1 UNK         0.0888 
     73 H73        33.0477   24.3688   -1.5169 H         1 UNK         0.0888 
     74 H74        33.4623   25.2053   -0.0179 H         1 UNK         0.0888 
     75 H75        32.1073   22.2618    0.8005 H         1 UNK         0.3017 
     76 H76        30.0090   23.1865    2.2339 H         1 UNK         0.0873 
     77 H77        30.1756   20.3750    1.0146 H         1 UNK         0.0745 
     78 H78        31.1921   20.9020    2.3197 H         1 UNK         0.0745 
     79 H79        29.1746   20.4274    5.4700 H         1 UNK         0.0705 
     80 H80        30.7209   20.2139    4.6840 H         1 UNK         0.0705 
     81 H81        32.2242   22.0803    4.6924 H         1 UNK         0.1334 
     82 H82        30.7791   26.0829    5.2160 H         1 UNK         0.1417 
     83 H83        28.0202   22.7967    5.1220 H         1 UNK         0.1562 
     84 H84        28.4562   26.5356    5.3763 H         1 UNK         0.0748 
     85 H85        27.5519   25.3123    6.2454 H         1 UNK         0.0748 
     86 H86        25.5897   27.0357    4.8753 H         1 UNK         0.0940 
     87 H87        25.2307   26.7558    3.1964 H         1 UNK         0.0940 
     88 H88        27.3734   28.5125    4.4371 H         1 UNK         0.0703 
     89 H89        27.9807   26.9296    2.1728 H         1 UNK         0.3081 
     90 H90        30.4676   29.0503    0.7920 H         1 UNK         0.0719 
     91 H91        31.5870   27.9885    2.7805 H         1 UNK         0.0809 
     92 H92        30.7849   26.4683    2.4120 H         1 UNK         0.0809 
     93 H93        31.9553   27.1507    1.2859 H         1 UNK         0.0809 
     94 H94        29.9226   26.4486    0.0403 H         1 UNK         0.2990 
     95 H95        27.0363   26.9760   -1.9764 H         1 UNK         0.0690 
     96 H96        28.7327   28.2385   -3.3007 H         1 UNK         0.0788 
     97 H97        28.5049   26.6180   -3.9371 H         1 UNK         0.0788 
     98 H98        29.9324   26.9936   -2.9721 H         1 UNK         0.0788 
     99 H99        29.1790   25.0922   -1.0779 H         1 UNK         0.2993 
    100 H100       26.9733   22.3822   -1.4127 H         1 UNK         0.0949 
    101 H101       28.4728   21.2665   -3.0525 H         1 UNK         0.0767 
    102 H102       27.4677   22.4575   -3.8590 H         1 UNK         0.0767 
    103 H103       29.1541   22.8247   -3.5246 H         1 UNK         0.0767 
    104 H104       29.8491   22.4712   -1.1917 H         1 UNK         0.3013 
    105 H105       26.1152   28.5363    1.1195 H         1 UNK         0.3121 
    106 H106       24.0151   30.4882    1.6189 H         1 UNK         0.0774 
    107 H107       23.7662   30.4113   -0.8602 H         1 UNK         0.0815 
    108 H108       25.2168   29.4289   -1.0000 H         1 UNK         0.0815 
    109 H109       23.7880   28.7898   -0.1869 H         1 UNK         0.0815 
    110 H110       27.3518   30.5075    0.3608 H         1 UNK         0.2987 
    111 H111       27.4598   33.3119   -0.2681 H         1 UNK         0.0949 
    112 H112       29.7065   31.3158    0.3535 H         1 UNK         0.0806 
    113 H113       29.0065   31.5946   -1.2403 H         1 UNK         0.0806 
    114 H114       29.9048   32.8730   -0.4356 H         1 UNK         0.0806 
    115 H115       27.6307   31.5982    2.7111 H         1 UNK         0.3010 
    116 H116       28.0096   32.0354    4.8395 H         1 UNK         0.0829 
    117 H117       27.8726   35.0284    4.1791 H         1 UNK         0.0813 
    118 H118       26.4897   34.0100    4.5789 H         1 UNK         0.0813 
    119 H119       27.7427   34.3051    5.7741 H         1 UNK         0.0813 
    120 H120       30.0763   31.1998    3.4575 H         1 UNK         0.3038 
    121 H121       32.4789   32.8028    4.2585 H         1 UNK         0.0769 
    122 H122       32.0382   30.9915    1.8093 H         1 UNK         0.0811 
    123 H123       33.5267   31.8422    2.1982 H         1 UNK         0.0811 
    124 H124       32.0875   32.7525    1.7680 H         1 UNK         0.0811 
    125 H125       34.4001   31.4344    4.5182 H         1 UNK         0.3204 
    126 H126       33.8828   28.8133    5.8283 H         1 UNK         0.0748 
    127 H127       36.2382   29.0485    6.5954 H         1 UNK         0.0771 
    128 H128       36.4214   30.5432    5.6867 H         1 UNK         0.0771 
    129 H129       35.3174   30.4682    7.0592 H         1 UNK         0.0771 
    130 H130       35.0649   26.9653    5.0948 H         1 UNK         0.2980 
    131 H131       35.4786   26.8410    2.2182 H         1 UNK         0.0545 
    132 H132       39.1291   27.3428    3.8357 H         1 UNK         0.3459 
    133 H133       37.6780   27.7425    4.7191 H         1 UNK         0.3459 
    134 H134       35.7386   24.6656    4.3495 H         1 UNK         0.0616 
    135 H135       35.8820   24.3988    2.6331 H         1 UNK         0.0616 
    136 H136       33.7428   23.9380    5.4260 H         1 UNK         0.0634 
    137 H137       33.1760   25.5947    5.4341 H         1 UNK         0.0634 
@<TRIPOS>BOND
     1    1    2 1    
     2    1   72 1    
     3    1   73 1    
     4    1   74 1    
     5    2    3 2    
     6    2    4 am   BACKBONE|DICT|INTERRES
     7    4    5 1    
     8    4   75 1    
     9    5    6 1    
    10    5   35 1    
    11    5   76 1    
    12    6    7 1    
    13    6   77 1    
    14    6   78 1    
    15    7    8 1    
    16    8    9 1    
    17    8   79 1    
    18    8   80 1    
    19    9   10 ar   
    20    9   14 ar   
    21   10   11 ar   
    22   10   81 1    
    23   11   12 ar   
    24   11   71 1    
    25   12   13 ar   
    26   12   82 1    
    27   13   14 ar   
    28   13   15 1    
    29   14   83 1    
    30   15   16 1    
    31   15   84 1    
    32   15   85 1    
    33   16   17 1    
    34   17   18 1    
    35   17   86 1    
    36   17   87 1    
    37   18   19 1    
    38   18   37 1    
    39   18   88 1    
    40   19   20 am   BACKBONE|DICT|INTERRES
    41   19   89 1    
    42   20   21 2    
    43   20   22 1    
    44   22   23 1    
    45   22   24 1    
    46   22   90 1    
    47   23   91 1    
    48   23   92 1    
    49   23   93 1    
    50   24   25 am   BACKBONE|DICT|INTERRES
    51   24   94 1    
    52   25   26 2    
    53   25   27 1    
    54   27   28 1    
    55   27   29 1    
    56   27   95 1    
    57   28   96 1    
    58   28   97 1    
    59   28   98 1    
    60   29   30 am   BACKBONE|DICT|INTERRES
    61   29   99 1    
    62   30   31 2    
    63   30   32 1    
    64   32   33 1    
    65   32   34 1    
    66   32  100 1    
    67   33  101 1    
    68   33  102 1    
    69   33  103 1    
    70   34   35 am   BACKBONE|DICT|INTERRES
    71   34  104 1    
    72   35   36 2    
    73   37   38 2    
    74   37   39 am   BACKBONE|DICT|INTERRES
    75   39   40 1    
    76   39  105 1    
    77   40   41 1    
    78   40   42 1    
    79   40  106 1    
    80   41  107 1    
    81   41  108 1    
    82   41  109 1    
    83   42   43 2    
    84   42   44 am   BACKBONE|DICT|INTERRES
    85   44   45 1    
    86   44  110 1    
    87   45   46 1    
    88   45   47 1    
    89   45  111 1    
    90   46  112 1    
    91   46  113 1    
    92   46  114 1    
    93   47   48 2    
    94   47   49 am   BACKBONE|DICT|INTERRES
    95   49   50 1    
    96   49  115 1    
    97   50   51 1    
    98   50   52 1    
    99   50  116 1    
   100   51  117 1    
   101   51  118 1    
   102   51  119 1    
   103   52   53 2    
   104   52   54 am   BACKBONE|DICT|INTERRES
   105   54   55 1    
   106   54  120 1    
   107   55   56 1    
   108   55   57 1    
   109   55  121 1    
   110   56  122 1    
   111   56  123 1    
   112   56  124 1    
   113   57   58 2    
   114   57   59 am   BACKBONE|DICT|INTERRES
   115   59   60 1    
   116   59  125 1    
   117   60   61 1    
   118   60   62 1    
   119   60  126 1    
   120   61  127 1    
   121   61  128 1    
   122   61  129 1    
   123   62   63 2    
   124   62   64 am   BACKBONE|DICT|INTERRES
   125   64   65 1    
   126   64  130 1    
   127   65   66 1    
   128   65   69 1    
   129   65  131 1    
   130   66   67 am   BACKBONE|DICT|INTERRES
   131   66   68 2    
   132   67  132 1    
   133   67  133 1    
   134   69   70 1    
   135   69  134 1    
   136   69  135 1    
   137   70   71 1    
   138   71  136 1    
   139   71  137 1    
@<TRIPOS>SUBSTRUCTURE
     1 UNK         1 GROUP             0       ****    0 ROOT    
