@<TRIPOS>MOLECULE
3R136
137   139    1
SMALL
USER_CHARGES


@<TRIPOS>ATOM
      1 CA         26.6569   22.6765    3.0882 C.3       0 UNK        -0.1979 
      2 C          27.4708   22.6348    1.8060 C.2       0 UNK         0.4864 
      3 O          27.7221   23.6802    1.2017 O.2       0 UNK        -0.5359 
      4 N          27.8485   21.4248    1.3711 N.am      1 UNK        -0.4318 
      5 CA         28.6292   21.0941    0.1670 C.3       1 UNK         0.0824 
      6 C6         30.0491   21.7240    0.1391 C.3       12 UNK        -0.0944 
      7 S7         31.0663   21.1142    1.5239 S.3       12 UNK        -0.2672 
      8 C8         32.4925   22.2503    1.4724 C.3       12 UNK         0.0333 
      9 C9         32.2145   23.6340    2.0560 C.ar      12 UNK        -0.0807 
     10 C10        32.7366   24.7675    1.4240 C.ar      12 UNK        -0.0894 
     11 C11        32.5469   26.0390    1.9734 C.ar      12 UNK        -0.0804 
     12 C12        31.8211   26.1788    3.1590 C.ar      12 UNK        -0.0824 
     13 C13        31.2946   25.0575    3.8033 C.ar      12 UNK        -0.0762 
     14 C14        31.4997   23.7887    3.2506 C.ar      12 UNK        -0.0782 
     15 C15        30.5237   25.2067    5.1064 C.3       12 UNK         0.0230 
     16 S16        28.7408   24.9771    4.8352 S.3       12 UNK        -0.2608 
     17 C17        28.0592   26.6517    5.0821 C.3       12 UNK        -0.0989 
     18 CA         28.4429   27.6949    4.0003 C.3       5 UNK         0.0716 
     19 N          28.3713   27.1634    2.6349 N.am      5 UNK        -0.4135 
     20 C          28.7815   27.8142    1.5365 C.2       4 UNK         0.5031 
     21 O          29.2472   28.9533    1.5481 O.2       4 UNK        -0.5229 
     22 CA         28.5764   27.1045    0.1935 C.3       4 UNK         0.0329 
     23 CB         29.7869   26.2300   -0.1606 C.3       4 UNK        -0.2001 
     24 N          27.3749   26.2750    0.1858 N.am      4 UNK        -0.4303 
     25 C          26.1205   26.7301    0.0730 C.2       3 UNK         0.5044 
     26 O          25.8310   27.9275    0.0633 O.2       3 UNK        -0.5152 
     27 CA         25.0171   25.6560   -0.0519 C.3       3 UNK         0.0319 
     28 CB         23.7044   26.2088   -0.6460 C.3       3 UNK        -0.2001 
     29 N          25.4727   24.4619   -0.7834 N.am      3 UNK        -0.4354 
     30 C          25.9377   24.4073   -2.0443 C.2       2 UNK         0.4964 
     31 O          25.8993   25.3527   -2.8332 O.2       2 UNK        -0.5047 
     32 CA         26.6201   23.0915   -2.4601 C.3       2 UNK         0.0288 
     33 CB         27.4584   23.2247   -3.7491 C.3       2 UNK        -0.2113 
     34 N          27.4579   22.6130   -1.3598 N.am      2 UNK        -0.4145 
     35 C          27.8456   21.3547   -1.1374 C.2       1 UNK         0.5006 
     36 O          27.5845   20.4144   -1.8900 O.2       1 UNK        -0.5103 
     37 C          27.5989   28.9751    4.1865 C.2       5 UNK         0.5055 
     38 O          27.9525   29.8203    5.0081 O.2       5 UNK        -0.5220 
     39 N          26.5044   29.0953    3.4194 N.am      6 UNK        -0.4450 
     40 CA         25.6389   30.2744    3.3850 C.3       6 UNK         0.0367 
     41 CB         24.2870   29.8941    2.7595 C.3       6 UNK        -0.1929 
     42 C          26.2708   31.4553    2.6272 C.2       6 UNK         0.5070 
     43 O          25.9427   32.6022    2.9323 O.2       6 UNK        -0.5237 
     44 N          27.1560   31.1678    1.6616 N.am      7 UNK        -0.4739 
     45 CA         27.9197   32.1738    0.9232 C.3       7 UNK         0.0276 
     46 CB         28.3557   31.6117   -0.4405 C.3       7 UNK        -0.1927 
     47 C          29.1256   32.6561    1.7425 C.2       7 UNK         0.5013 
     48 O          29.3155   33.8657    1.8773 O.2       7 UNK        -0.5193 
     49 N          29.8952   31.7112    2.2979 N.am      8 UNK        -0.4253 
     50 CA         31.0269   31.9731    3.1812 C.3       8 UNK         0.0242 
     51 CB         32.2541   32.4425    2.3737 C.3       8 UNK        -0.2000 
     52 C          31.3387   30.7001    3.9701 C.2       8 UNK         0.4948 
     53 O          31.8131   29.7296    3.3835 O.2       8 UNK        -0.5275 
     54 N          31.0965   30.7233    5.2870 N.am      9 UNK        -0.4246 
     55 CA         31.4055   29.6126    6.1961 C.3       9 UNK         0.0261 
     56 CB         30.7003   29.8418    7.5421 C.3       9 UNK        -0.1959 
     57 C          32.9158   29.3946    6.4031 C.2       9 UNK         0.5033 
     58 O          33.3267   28.2719    6.6974 O.2       9 UNK        -0.5390 
     59 N          33.7062   30.4622    6.2351 N.am      10 UNK        -0.4215 
     60 CA         35.1655   30.4674    6.3089 C.3       10 UNK         0.0240 
     61 CB         35.6101   31.4304    7.4270 C.3       10 UNK        -0.1982 
     62 C          35.7382   30.8416    4.9324 C.2       10 UNK         0.4970 
     63 O          36.4660   31.8282    4.8108 O.2       10 UNK        -0.4916 
     64 N          35.3754   30.0549    3.9121 N.am      11 UNK        -0.4279 
     65 CA         35.8507   30.1909    2.5246 C.3       11 UNK         0.1003 
     66 C          37.3621   29.8840    2.2986 C.2       11 UNK         0.5709 
     67 N          38.0650   29.2589    3.2363 N.am      11 UNK        -0.7358 
     68 O          37.9088   30.2336    1.2550 O.2       11 UNK        -0.4999 
     69 C69        34.9505   29.4041    1.5344 C.3       12 UNK        -0.0954 
     70 S70        34.7838   27.6351    1.9568 S.3       12 UNK        -0.2268 
     71 C71        33.1303   27.2676    1.2977 C.3       12 UNK         0.0203 
     72 H72        25.8242   21.9751    3.0437 H         1 UNK         0.0888 
     73 H73        27.2834   22.4185    3.9414 H         1 UNK         0.0888 
     74 H74        26.2509   23.6741    3.2540 H         1 UNK         0.0888 
     75 H75        27.5774   20.6198    1.9188 H         1 UNK         0.3017 
     76 H76        28.7652   20.0118    0.2082 H         1 UNK         0.0873 
     77 H77        30.5648   21.4712   -0.7893 H         1 UNK         0.0745 
     78 H78        30.0026   22.8135    0.1793 H         1 UNK         0.0745 
     79 H79        33.3089   21.8016    2.0396 H         1 UNK         0.0705 
     80 H80        32.8414   22.3264    0.4413 H         1 UNK         0.0705 
     81 H81        33.3074   24.6620    0.5115 H         1 UNK         0.1334 
     82 H82        31.6795   27.1630    3.5831 H         1 UNK         0.1417 
     83 H83        31.1019   22.9196    3.7564 H         1 UNK         0.1562 
     84 H84        30.7192   26.1750    5.5692 H         1 UNK         0.0748 
     85 H85        30.8704   24.4559    5.8178 H         1 UNK         0.0748 
     86 H86        28.3604   27.0067    6.0699 H         1 UNK         0.0940 
     87 H87        26.9742   26.5355    5.1289 H         1 UNK         0.0940 
     88 H88        29.4830   27.9802    4.1605 H         1 UNK         0.0703 
     89 H89        28.0392   26.2137    2.5407 H         1 UNK         0.3081 
     90 H90        28.4707   27.8712   -0.5771 H         1 UNK         0.0719 
     91 H91        29.9544   25.4522    0.5861 H         1 UNK         0.0809 
     92 H92        29.6573   25.7434   -1.1274 H         1 UNK         0.0809 
     93 H93        30.6931   26.8322   -0.2213 H         1 UNK         0.0809 
     94 H94        27.5133   25.2777    0.3292 H         1 UNK         0.2990 
     95 H95        24.8043   25.3263    0.9661 H         1 UNK         0.0690 
     96 H96        22.9423   25.4327   -0.7152 H         1 UNK         0.0788 
     97 H97        23.8534   26.6237   -1.6433 H         1 UNK         0.0788 
     98 H98        23.2987   27.0059   -0.0217 H         1 UNK         0.0788 
     99 H99        25.5412   23.6219   -0.2260 H         1 UNK         0.2993 
    100 H100       25.8225   22.3667   -2.6368 H         1 UNK         0.0949 
    101 H101       28.2683   23.9447   -3.6261 H         1 UNK         0.0767 
    102 H102       27.8995   22.2712   -4.0397 H         1 UNK         0.0767 
    103 H103       26.8433   23.5604   -4.5850 H         1 UNK         0.0767 
    104 H104       27.6845   23.2867   -0.6327 H         1 UNK         0.3013 
    105 H105       26.2916   28.3588    2.7621 H         1 UNK         0.3121 
    106 H106       25.4592   30.5994    4.4123 H         1 UNK         0.0774 
    107 H107       24.3971   29.5661    1.7251 H         1 UNK         0.0815 
    108 H108       23.6061   30.7463    2.7586 H         1 UNK         0.0815 
    109 H109       23.8010   29.0934    3.3171 H         1 UNK         0.0815 
    110 H110       27.4097   30.2015    1.5018 H         1 UNK         0.2987 
    111 H111       27.2760   33.0364    0.7355 H         1 UNK         0.0949 
    112 H112       29.0290   30.7604   -0.3403 H         1 UNK         0.0806 
    113 H113       27.4962   31.2898   -1.0287 H         1 UNK         0.0806 
    114 H114       28.8801   32.3713   -1.0216 H         1 UNK         0.0806 
    115 H115       29.6868   30.7283    2.1238 H         1 UNK         0.3010 
    116 H116       30.7508   32.7617    3.8847 H         1 UNK         0.0829 
    117 H117       32.0846   33.4200    1.9224 H         1 UNK         0.0813 
    118 H118       33.1358   32.5285    3.0103 H         1 UNK         0.0813 
    119 H119       32.4955   31.7443    1.5720 H         1 UNK         0.0813 
    120 H120       30.6659   31.5406    5.6961 H         1 UNK         0.3038 
    121 H121       31.0067   28.6960    5.7595 H         1 UNK         0.0769 
    122 H122       31.0429   30.7555    8.0293 H         1 UNK         0.0811 
    123 H123       30.8911   29.0150    8.2279 H         1 UNK         0.0811 
    124 H124       29.6196   29.9116    7.4149 H         1 UNK         0.0811 
    125 H125       33.2713   31.3329    5.9652 H         1 UNK         0.3204 
    126 H126       35.5447   29.4724    6.5514 H         1 UNK         0.0748 
    127 H127       36.6969   31.4482    7.5192 H         1 UNK         0.0771 
    128 H128       35.2801   32.4527    7.2376 H         1 UNK         0.0771 
    129 H129       35.2094   31.1238    8.3934 H         1 UNK         0.0771 
    130 H130       34.7586   29.2737    4.0847 H         1 UNK         0.2980 
    131 H131       35.7391   31.2463    2.2687 H         1 UNK         0.0545 
    132 H132       39.0426   29.0726    3.0780 H         1 UNK         0.3459 
    133 H133       37.6243   28.9569    4.0895 H         1 UNK         0.3459 
    134 H134       35.3165   29.4909    0.5098 H         1 UNK         0.0616 
    135 H135       33.9586   29.8560    1.5312 H         1 UNK         0.0616 
    136 H136       33.2000   27.1175    0.2195 H         1 UNK         0.0634 
    137 H137       32.4604   28.1149    1.4466 H         1 UNK         0.0634 
@<TRIPOS>BOND
     1    1    2 1    
     2    1   72 1    
     3    1   73 1    
     4    1   74 1    
     5    2    3 2    
     6    2    4 am   BACKBONE|DICT|INTERRES
     7    4    5 1    
     8    4   75 1    
     9    5    6 1    
    10    5   35 1    
    11    5   76 1    
    12    6    7 1    
    13    6   77 1    
    14    6   78 1    
    15    7    8 1    
    16    8    9 1    
    17    8   79 1    
    18    8   80 1    
    19    9   10 ar   
    20    9   14 ar   
    21   10   11 ar   
    22   10   81 1    
    23   11   12 ar   
    24   11   71 1    
    25   12   13 ar   
    26   12   82 1    
    27   13   14 ar   
    28   13   15 1    
    29   14   83 1    
    30   15   16 1    
    31   15   84 1    
    32   15   85 1    
    33   16   17 1    
    34   17   18 1    
    35   17   86 1    
    36   17   87 1    
    37   18   19 1    
    38   18   37 1    
    39   18   88 1    
    40   19   20 am   BACKBONE|DICT|INTERRES
    41   19   89 1    
    42   20   21 2    
    43   20   22 1    
    44   22   23 1    
    45   22   24 1    
    46   22   90 1    
    47   23   91 1    
    48   23   92 1    
    49   23   93 1    
    50   24   25 am   BACKBONE|DICT|INTERRES
    51   24   94 1    
    52   25   26 2    
    53   25   27 1    
    54   27   28 1    
    55   27   29 1    
    56   27   95 1    
    57   28   96 1    
    58   28   97 1    
    59   28   98 1    
    60   29   30 am   BACKBONE|DICT|INTERRES
    61   29   99 1    
    62   30   31 2    
    63   30   32 1    
    64   32   33 1    
    65   32   34 1    
    66   32  100 1    
    67   33  101 1    
    68   33  102 1    
    69   33  103 1    
    70   34   35 am   BACKBONE|DICT|INTERRES
    71   34  104 1    
    72   35   36 2    
    73   37   38 2    
    74   37   39 am   BACKBONE|DICT|INTERRES
    75   39   40 1    
    76   39  105 1    
    77   40   41 1    
    78   40   42 1    
    79   40  106 1    
    80   41  107 1    
    81   41  108 1    
    82   41  109 1    
    83   42   43 2    
    84   42   44 am   BACKBONE|DICT|INTERRES
    85   44   45 1    
    86   44  110 1    
    87   45   46 1    
    88   45   47 1    
    89   45  111 1    
    90   46  112 1    
    91   46  113 1    
    92   46  114 1    
    93   47   48 2    
    94   47   49 am   BACKBONE|DICT|INTERRES
    95   49   50 1    
    96   49  115 1    
    97   50   51 1    
    98   50   52 1    
    99   50  116 1    
   100   51  117 1    
   101   51  118 1    
   102   51  119 1    
   103   52   53 2    
   104   52   54 am   BACKBONE|DICT|INTERRES
   105   54   55 1    
   106   54  120 1    
   107   55   56 1    
   108   55   57 1    
   109   55  121 1    
   110   56  122 1    
   111   56  123 1    
   112   56  124 1    
   113   57   58 2    
   114   57   59 am   BACKBONE|DICT|INTERRES
   115   59   60 1    
   116   59  125 1    
   117   60   61 1    
   118   60   62 1    
   119   60  126 1    
   120   61  127 1    
   121   61  128 1    
   122   61  129 1    
   123   62   63 2    
   124   62   64 am   BACKBONE|DICT|INTERRES
   125   64   65 1    
   126   64  130 1    
   127   65   66 1    
   128   65   69 1    
   129   65  131 1    
   130   66   67 am   BACKBONE|DICT|INTERRES
   131   66   68 2    
   132   67  132 1    
   133   67  133 1    
   134   69   70 1    
   135   69  134 1    
   136   69  135 1    
   137   70   71 1    
   138   71  136 1    
   139   71  137 1    
@<TRIPOS>SUBSTRUCTURE
     1 UNK         1 GROUP             0       ****    0 ROOT    
