@<TRIPOS>MOLECULE
3R136
137   139    1
SMALL
USER_CHARGES


@<TRIPOS>ATOM
      1 CA         28.9384   19.2903    0.5624 C.3       0 UNK        -0.1979 
      2 C          28.5709   19.9768   -0.7450 C.2       0 UNK         0.4864 
      3 O          28.0058   19.3392   -1.6353 O.2       0 UNK        -0.5359 
      4 N          28.8946   21.2694   -0.8683 N.am      1 UNK        -0.4318 
      5 CA         28.5414   22.1218   -2.0064 C.3       1 UNK         0.0824 
      6 C6         29.4582   23.3716   -2.0950 C.3       12 UNK        -0.0944 
      7 S7         29.5638   24.3447   -0.5492 S.3       12 UNK        -0.2672 
      8 C8         31.2472   23.9220   -0.0053 C.3       12 UNK         0.0333 
      9 C9         31.5455   24.4709    1.3811 C.ar      12 UNK        -0.0807 
     10 C10        32.1648   25.7155    1.5300 C.ar      12 UNK        -0.0894 
     11 C11        32.4849   26.2058    2.8007 C.ar      12 UNK        -0.0804 
     12 C12        32.1762   25.4348    3.9277 C.ar      12 UNK        -0.0824 
     13 C13        31.5261   24.2045    3.7936 C.ar      12 UNK        -0.0762 
     14 C14        31.2233   23.7225    2.5167 C.ar      12 UNK        -0.0782 
     15 C15        31.1421   23.3979    5.0261 C.3       12 UNK         0.0230 
     16 S16        29.3353   23.3366    5.2607 S.3       12 UNK        -0.2608 
     17 C17        28.9345   25.0611    5.7159 C.3       12 UNK        -0.0989 
     18 CA         28.5735   25.9502    4.4974 C.3       5 UNK         0.0716 
     19 N          27.5283   25.3576    3.6601 N.am      5 UNK        -0.4135 
     20 C          27.2609   25.7417    2.4067 C.2       4 UNK         0.5031 
     21 O          27.9002   26.6161    1.8174 O.2       4 UNK        -0.5229 
     22 CA         26.1133   24.9863    1.7060 C.3       4 UNK         0.0329 
     23 CB         24.7759   25.1142    2.4681 C.3       4 UNK        -0.2001 
     24 N          25.9601   25.3562    0.2939 N.am      4 UNK        -0.4303 
     25 C          25.5519   26.5272   -0.2235 C.2       3 UNK         0.5044 
     26 O          25.1107   27.4667    0.4399 O.2       3 UNK        -0.5152 
     27 CA         25.6510   26.6922   -1.7537 C.3       3 UNK         0.0319 
     28 CB         26.8697   27.5572   -2.1158 C.3       3 UNK        -0.2001 
     29 N          25.7447   25.4217   -2.4762 N.am      3 UNK        -0.4354 
     30 C          24.7338   24.5570   -2.6434 C.2       2 UNK         0.4964 
     31 O          23.5773   24.7772   -2.2825 O.2       2 UNK        -0.5047 
     32 CA         25.0719   23.2085   -3.3083 C.3       2 UNK         0.0288 
     33 CB         24.7322   23.2482   -4.8074 C.3       2 UNK        -0.2113 
     34 N          26.4703   22.7896   -3.1404 N.am      2 UNK        -0.4145 
     35 C          27.0493   22.5102   -1.9630 C.2       1 UNK         0.5006 
     36 O          26.4649   22.5972   -0.8794 O.2       1 UNK        -0.5103 
     37 C          28.1820   27.3736    4.9458 C.2       5 UNK         0.5055 
     38 O          26.9926   27.6734    5.0771 O.2       5 UNK        -0.5220 
     39 N          29.2022   28.2084    5.1882 N.am      6 UNK        -0.4450 
     40 CA         29.1301   29.6318    5.5507 C.3       6 UNK         0.0367 
     41 CB         28.3453   29.8583    6.8604 C.3       6 UNK        -0.1929 
     42 C          28.6665   30.5454    4.3978 C.2       6 UNK         0.5070 
     43 O          28.2303   31.6696    4.6483 O.2       6 UNK        -0.5237 
     44 N          28.7929   30.0671    3.1525 N.am      7 UNK        -0.4739 
     45 CA         28.4515   30.8059    1.9338 C.3       7 UNK         0.0276 
     46 CB         28.0387   29.8001    0.8470 C.3       7 UNK        -0.1927 
     47 C          29.5896   31.7077    1.4204 C.2       7 UNK         0.5013 
     48 O          29.3470   32.5071    0.5147 O.2       7 UNK        -0.5193 
     49 N          30.8006   31.5631    1.9724 N.am      8 UNK        -0.4253 
     50 CA         31.9993   32.3033    1.5842 C.3       8 UNK         0.0242 
     51 CB         32.8879   31.3920    0.7193 C.3       8 UNK        -0.2000 
     52 C          32.7546   32.7491    2.8386 C.2       8 UNK         0.4948 
     53 O          32.5998   32.1380    3.8981 O.2       8 UNK        -0.5275 
     54 N          33.6148   33.7656    2.6879 N.am      9 UNK        -0.4246 
     55 CA         34.4514   34.3364    3.7547 C.3       9 UNK         0.0261 
     56 CB         35.1943   35.5666    3.2077 C.3       9 UNK        -0.1959 
     57 C          35.4473   33.3481    4.3956 C.2       9 UNK         0.5033 
     58 O          35.9016   33.5910    5.5142 O.2       9 UNK        -0.5390 
     59 N          35.7501   32.2478    3.6932 N.am      10 UNK        -0.4215 
     60 CA         36.5453   31.1200    4.1811 C.3       10 UNK         0.0240 
     61 CB         36.9171   30.2254    2.9864 C.3       10 UNK        -0.1982 
     62 C          35.8445   30.2840    5.2714 C.2       10 UNK         0.4970 
     63 O          36.5329   29.5398    5.9714 O.2       10 UNK        -0.4916 
     64 N          34.5152   30.3966    5.3896 N.am      11 UNK        -0.4279 
     65 CA         33.6820   29.6273    6.3256 C.3       11 UNK         0.1003 
     66 C          32.6316   30.4782    7.0898 C.2       11 UNK         0.5709 
     67 N          32.2294   31.6462    6.6069 N.am      11 UNK        -0.7358 
     68 O          32.1858   30.0761    8.1616 O.2       11 UNK        -0.4999 
     69 C69        33.0580   28.3704    5.6577 C.3       12 UNK        -0.0954 
     70 S70        32.2727   28.6974    4.0344 S.3       12 UNK        -0.2268 
     71 C71        33.1780   27.5579    2.9385 C.3       12 UNK         0.0203 
     72 H72        28.0409   18.9141    1.0529 H         1 UNK         0.0888 
     73 H73        29.6015   18.4472    0.3704 H         1 UNK         0.0888 
     74 H74        29.4423   19.9679    1.2517 H         1 UNK         0.0888 
     75 H75        29.3063   21.7580   -0.0872 H         1 UNK         0.3017 
     76 H76        28.6954   21.5366   -2.9160 H         1 UNK         0.0873 
     77 H77        29.1318   24.0371   -2.8963 H         1 UNK         0.0745 
     78 H78        30.4619   23.0561   -2.3846 H         1 UNK         0.0745 
     79 H79        31.3720   22.8381   -0.0060 H         1 UNK         0.0705 
     80 H80        31.9659   24.3129   -0.7274 H         1 UNK         0.0705 
     81 H81        32.4062   26.2974    0.6509 H         1 UNK         0.1334 
     82 H82        32.4240   25.7984    4.9138 H         1 UNK         0.1417 
     83 H83        30.7285   22.7668    2.4105 H         1 UNK         0.1562 
     84 H84        31.6126   23.8001    5.9247 H         1 UNK         0.0748 
     85 H85        31.5170   22.3794    4.9158 H         1 UNK         0.0748 
     86 H86        29.7756   25.4855    6.2674 H         1 UNK         0.0940 
     87 H87        28.1011   25.0298    6.4208 H         1 UNK         0.0940 
     88 H88        29.4611   26.0447    3.8703 H         1 UNK         0.0703 
     89 H89        26.9699   24.6362    4.0899 H         1 UNK         0.3081 
     90 H90        26.3956   23.9323    1.6974 H         1 UNK         0.0719 
     91 H91        24.8277   24.6326    3.4448 H         1 UNK         0.0809 
     92 H92        23.9612   24.6396    1.9210 H         1 UNK         0.0809 
     93 H93        24.5034   26.1563    2.6385 H         1 UNK         0.0809 
     94 H94        26.2860   24.6478   -0.3527 H         1 UNK         0.2990 
     95 H95        24.7502   27.2113   -2.0885 H         1 UNK         0.0690 
     96 H96        26.9390   27.7207   -3.1914 H         1 UNK         0.0788 
     97 H97        27.8021   27.0999   -1.7806 H         1 UNK         0.0788 
     98 H98        26.8018   28.5382   -1.6444 H         1 UNK         0.0788 
     99 H99        26.6572   25.1636   -2.8211 H         1 UNK         0.2993 
    100 H100       24.4425   22.4521   -2.8340 H         1 UNK         0.0949 
    101 H101       23.6898   23.5300   -4.9641 H         1 UNK         0.0767 
    102 H102       25.3490   23.9712   -5.3428 H         1 UNK         0.0767 
    103 H103       24.8745   22.2728   -5.2733 H         1 UNK         0.0767 
    104 H104       27.0155   22.6995   -3.9862 H         1 UNK         0.3013 
    105 H105       30.1412   27.8659    5.0302 H         1 UNK         0.3121 
    106 H106       30.1570   29.9320    5.7482 H         1 UNK         0.0774 
    107 H107       28.4625   30.8846    7.2103 H         1 UNK         0.0815 
    108 H108       27.2771   29.6825    6.7327 H         1 UNK         0.0815 
    109 H109       28.7041   29.2054    7.6559 H         1 UNK         0.0815 
    110 H110       29.1426   29.1274    3.0275 H         1 UNK         0.2987 
    111 H111       27.5953   31.4532    2.1364 H         1 UNK         0.0949 
    112 H112       27.1777   29.2104    1.1623 H         1 UNK         0.0806 
    113 H113       27.7577   30.3100   -0.0753 H         1 UNK         0.0806 
    114 H114       28.8462   29.1075    0.6059 H         1 UNK         0.0806 
    115 H115       30.9121   30.9473    2.7672 H         1 UNK         0.3010 
    116 H116       31.7286   33.1960    1.0162 H         1 UNK         0.0829 
    117 H117       32.3584   31.0572   -0.1729 H         1 UNK         0.0813 
    118 H118       33.7848   31.9139    0.3837 H         1 UNK         0.0813 
    119 H119       33.2090   30.5053    1.2676 H         1 UNK         0.0813 
    120 H120       33.6934   34.2002    1.7790 H         1 UNK         0.3038 
    121 H121       33.7806   34.6685    4.5500 H         1 UNK         0.0769 
    122 H122       35.8627   35.3030    2.3870 H         1 UNK         0.0811 
    123 H123       35.8014   36.0341    3.9844 H         1 UNK         0.0811 
    124 H124       34.4984   36.3239    2.8462 H         1 UNK         0.0811 
    125 H125       35.3382   32.1486    2.7775 H         1 UNK         0.3204 
    126 H126       37.4654   31.5169    4.6152 H         1 UNK         0.0748 
    127 H127       37.5448   29.3910    3.3031 H         1 UNK         0.0771 
    128 H128       36.0324   29.8030    2.5075 H         1 UNK         0.0771 
    129 H129       37.4767   30.7799    2.2327 H         1 UNK         0.0771 
    130 H130       34.0081   31.0291    4.7810 H         1 UNK         0.2980 
    131 H131       34.3301   29.2602    7.1237 H         1 UNK         0.0545 
    132 H132       32.4777   31.9355    5.6640 H         1 UNK         0.3459 
    133 H133       31.5662   32.1888    7.1350 H         1 UNK         0.3459 
    134 H134       32.3233   27.9010    6.3145 H         1 UNK         0.0616 
    135 H135       33.8443   27.6260    5.5301 H         1 UNK         0.0616 
    136 H136       34.2009   27.4172    3.2895 H         1 UNK         0.0634 
    137 H137       33.2604   28.0388    1.9629 H         1 UNK         0.0634 
@<TRIPOS>BOND
     1    1    2 1    
     2    1   72 1    
     3    1   73 1    
     4    1   74 1    
     5    2    3 2    
     6    2    4 am   BACKBONE|DICT|INTERRES
     7    4    5 1    
     8    4   75 1    
     9    5    6 1    
    10    5   35 1    
    11    5   76 1    
    12    6    7 1    
    13    6   77 1    
    14    6   78 1    
    15    7    8 1    
    16    8    9 1    
    17    8   79 1    
    18    8   80 1    
    19    9   10 ar   
    20    9   14 ar   
    21   10   11 ar   
    22   10   81 1    
    23   11   12 ar   
    24   11   71 1    
    25   12   13 ar   
    26   12   82 1    
    27   13   14 ar   
    28   13   15 1    
    29   14   83 1    
    30   15   16 1    
    31   15   84 1    
    32   15   85 1    
    33   16   17 1    
    34   17   18 1    
    35   17   86 1    
    36   17   87 1    
    37   18   19 1    
    38   18   37 1    
    39   18   88 1    
    40   19   20 am   BACKBONE|DICT|INTERRES
    41   19   89 1    
    42   20   21 2    
    43   20   22 1    
    44   22   23 1    
    45   22   24 1    
    46   22   90 1    
    47   23   91 1    
    48   23   92 1    
    49   23   93 1    
    50   24   25 am   BACKBONE|DICT|INTERRES
    51   24   94 1    
    52   25   26 2    
    53   25   27 1    
    54   27   28 1    
    55   27   29 1    
    56   27   95 1    
    57   28   96 1    
    58   28   97 1    
    59   28   98 1    
    60   29   30 am   BACKBONE|DICT|INTERRES
    61   29   99 1    
    62   30   31 2    
    63   30   32 1    
    64   32   33 1    
    65   32   34 1    
    66   32  100 1    
    67   33  101 1    
    68   33  102 1    
    69   33  103 1    
    70   34   35 am   BACKBONE|DICT|INTERRES
    71   34  104 1    
    72   35   36 2    
    73   37   38 2    
    74   37   39 am   BACKBONE|DICT|INTERRES
    75   39   40 1    
    76   39  105 1    
    77   40   41 1    
    78   40   42 1    
    79   40  106 1    
    80   41  107 1    
    81   41  108 1    
    82   41  109 1    
    83   42   43 2    
    84   42   44 am   BACKBONE|DICT|INTERRES
    85   44   45 1    
    86   44  110 1    
    87   45   46 1    
    88   45   47 1    
    89   45  111 1    
    90   46  112 1    
    91   46  113 1    
    92   46  114 1    
    93   47   48 2    
    94   47   49 am   BACKBONE|DICT|INTERRES
    95   49   50 1    
    96   49  115 1    
    97   50   51 1    
    98   50   52 1    
    99   50  116 1    
   100   51  117 1    
   101   51  118 1    
   102   51  119 1    
   103   52   53 2    
   104   52   54 am   BACKBONE|DICT|INTERRES
   105   54   55 1    
   106   54  120 1    
   107   55   56 1    
   108   55   57 1    
   109   55  121 1    
   110   56  122 1    
   111   56  123 1    
   112   56  124 1    
   113   57   58 2    
   114   57   59 am   BACKBONE|DICT|INTERRES
   115   59   60 1    
   116   59  125 1    
   117   60   61 1    
   118   60   62 1    
   119   60  126 1    
   120   61  127 1    
   121   61  128 1    
   122   61  129 1    
   123   62   63 2    
   124   62   64 am   BACKBONE|DICT|INTERRES
   125   64   65 1    
   126   64  130 1    
   127   65   66 1    
   128   65   69 1    
   129   65  131 1    
   130   66   67 am   BACKBONE|DICT|INTERRES
   131   66   68 2    
   132   67  132 1    
   133   67  133 1    
   134   69   70 1    
   135   69  134 1    
   136   69  135 1    
   137   70   71 1    
   138   71  136 1    
   139   71  137 1    
@<TRIPOS>SUBSTRUCTURE
     1 UNK         1 GROUP             0       ****    0 ROOT    
