@<TRIPOS>MOLECULE
3R136
137   139    1
SMALL
USER_CHARGES


@<TRIPOS>ATOM
      1 CA         28.4162   20.6406   -2.0068 C.3       0 UNK        -0.1979 
      2 C          28.7772   21.8161   -1.1111 C.2       0 UNK         0.4864 
      3 O          28.8911   22.9398   -1.6016 O.2       0 UNK        -0.5359 
      4 N          28.9521   21.5601    0.1942 N.am      1 UNK        -0.4318 
      5 CA         29.3081   22.5386    1.2307 C.3       1 UNK         0.0824 
      6 C6         29.4300   21.8744    2.6267 C.3       12 UNK        -0.0944 
      7 S7         30.9796   20.9266    2.7815 S.3       12 UNK        -0.2672 
      8 C8         31.8201   21.7896    4.1560 C.3       12 UNK         0.0333 
      9 C9         31.9522   23.2918    3.9280 C.ar      12 UNK        -0.0807 
     10 C10        32.6420   23.7779    2.8138 C.ar      12 UNK        -0.0894 
     11 C11        32.7491   25.1524    2.5873 C.ar      12 UNK        -0.0804 
     12 C12        32.1514   26.0447    3.4822 C.ar      12 UNK        -0.0824 
     13 C13        31.4816   25.5746    4.6176 C.ar      12 UNK        -0.0762 
     14 C14        31.3869   24.1962    4.8346 C.ar      12 UNK        -0.0782 
     15 C15        30.8911   26.5607    5.6223 C.3       12 UNK         0.0230 
     16 S16        29.0814   26.4409    5.8226 S.3       12 UNK        -0.2608 
     17 C17        28.4812   26.4595    4.1041 C.3       12 UNK        -0.0989 
     18 CA         28.7005   27.7993    3.3531 C.3       5 UNK         0.0716 
     19 N          28.8770   27.5671    1.9187 N.am      5 UNK        -0.4135 
     20 C          29.2083   28.4866    1.0030 C.2       4 UNK         0.5031 
     21 O          29.3069   29.6899    1.2386 O.2       4 UNK        -0.5229 
     22 CA         29.4623   27.9736   -0.4207 C.3       4 UNK         0.0329 
     23 CB         30.8360   27.2911   -0.5105 C.3       4 UNK        -0.2001 
     24 N          28.4222   27.0295   -0.8269 N.am      4 UNK        -0.4303 
     25 C          27.3203   27.3672   -1.5097 C.2       3 UNK         0.5044 
     26 O          27.1107   28.4918   -1.9629 O.2       3 UNK        -0.5152 
     27 CA         26.2563   26.2735   -1.7149 C.3       3 UNK         0.0319 
     28 CB         26.4847   25.5444   -3.0484 C.3       3 UNK        -0.2001 
     29 N          26.1972   25.2886   -0.6319 N.am      3 UNK        -0.4354 
     30 C          25.9005   25.5644    0.6463 C.2       2 UNK         0.4964 
     31 O          25.6542   26.6926    1.0727 O.2       2 UNK        -0.5047 
     32 CA         25.9421   24.3870    1.6333 C.3       2 UNK         0.0288 
     33 CB         24.5953   23.6470    1.6419 C.3       2 UNK        -0.2113 
     34 N          27.0271   23.4250    1.4027 N.am      2 UNK        -0.4145 
     35 C          28.3310   23.7249    1.2928 C.2       1 UNK         0.5006 
     36 O          28.7735   24.8729    1.2322 O.2       1 UNK        -0.5103 
     37 C          27.6009   28.8295    3.6786 C.2       5 UNK         0.5055 
     38 O          27.8162   29.6865    4.5366 O.2       5 UNK        -0.5220 
     39 N          26.4548   28.7449    2.9858 N.am      6 UNK        -0.4450 
     40 CA         25.3396   29.6802    3.1547 C.3       6 UNK         0.0367 
     41 CB         24.0366   29.0144    2.6837 C.3       6 UNK        -0.1929 
     42 C          25.5564   31.0091    2.4113 C.2       6 UNK         0.5070 
     43 O          25.0127   32.0286    2.8370 O.2       6 UNK        -0.5237 
     44 N          26.3144   30.9777    1.3069 N.am      7 UNK        -0.4739 
     45 CA         26.5771   32.1408    0.4573 C.3       7 UNK         0.0276 
     46 CB         26.9402   31.6674   -0.9587 C.3       7 UNK        -0.1927 
     47 C          27.6820   33.0491    1.0161 C.2       7 UNK         0.5013 
     48 O          27.5561   34.2714    0.9261 O.2       7 UNK        -0.5193 
     49 N          28.7438   32.4405    1.5555 N.am      8 UNK        -0.4253 
     50 CA         29.9337   33.1129    2.0631 C.3       8 UNK         0.0242 
     51 CB         31.1097   32.8459    1.0988 C.3       8 UNK        -0.2000 
     52 C          30.1869   32.6621    3.5087 C.2       8 UNK         0.4948 
     53 O          29.4714   33.1060    4.4081 O.2       8 UNK        -0.5275 
     54 N          31.2071   31.8241    3.7148 N.am      9 UNK        -0.4246 
     55 CA         31.6847   31.3245    5.0002 C.3       9 UNK         0.0261 
     56 CB         32.4718   32.4299    5.7375 C.3       9 UNK        -0.1959 
     57 C          32.5448   30.0796    4.7351 C.2       9 UNK         0.5033 
     58 O          32.5984   29.6106    3.5945 O.2       9 UNK        -0.5390 
     59 N          33.1944   29.5605    5.7870 N.am      10 UNK        -0.4215 
     60 CA         34.1054   28.4123    5.7443 C.3       10 UNK         0.0240 
     61 CB         34.6030   28.1013    7.1655 C.3       10 UNK        -0.1982 
     62 C          35.2839   28.6366    4.7815 C.2       10 UNK         0.4970 
     63 O          36.0777   29.5554    4.9965 O.2       10 UNK        -0.4916 
     64 N          35.3571   27.8029    3.7395 N.am      11 UNK        -0.4279 
     65 CA         36.4233   27.8054    2.7328 C.3       11 UNK         0.1003 
     66 C          37.7560   27.1967    3.2548 C.2       11 UNK         0.5709 
     67 N          38.8668   27.4801    2.5874 N.am      11 UNK        -0.7358 
     68 O          37.7961   26.4623    4.2412 O.2       11 UNK        -0.4999 
     69 C69        35.9425   27.1612    1.4037 C.3       12 UNK        -0.0954 
     70 S70        35.3068   25.4541    1.5746 S.3       12 UNK        -0.2268 
     71 C71        33.5066   25.6638    1.3714 C.3       12 UNK         0.0203 
     72 H72        29.1745   20.5118   -2.7788 H         1 UNK         0.0888 
     73 H73        28.3401   19.7083   -1.4473 H         1 UNK         0.0888 
     74 H74        27.4594   20.8220   -2.4957 H         1 UNK         0.0888 
     75 H75        28.8654   20.6072    0.5182 H         1 UNK         0.3017 
     76 H76        30.2786   22.9595    0.9578 H         1 UNK         0.0873 
     77 H77        28.5903   21.2026    2.8136 H         1 UNK         0.0745 
     78 H78        29.3883   22.6164    3.4262 H         1 UNK         0.0745 
     79 H79        32.8149   21.3613    4.2857 H         1 UNK         0.0705 
     80 H80        31.2755   21.5848    5.0791 H         1 UNK         0.0705 
     81 H81        33.0932   23.0834    2.1182 H         1 UNK         0.1334 
     82 H82        32.2188   27.1078    3.2989 H         1 UNK         0.1417 
     83 H83        30.8639   23.8318    5.7086 H         1 UNK         0.1562 
     84 H84        31.1303   27.5850    5.3417 H         1 UNK         0.0748 
     85 H85        31.3609   26.3993    6.5934 H         1 UNK         0.0748 
     86 H86        27.4291   26.1703    4.0989 H         1 UNK         0.0940 
     87 H87        28.9998   25.6464    3.5995 H         1 UNK         0.0940 
     88 H88        29.6434   28.2372    3.6842 H         1 UNK         0.0703 
     89 H89        28.8288   26.5933    1.6229 H         1 UNK         0.3081 
     90 H90        29.4713   28.8350   -1.0922 H         1 UNK         0.0719 
     91 H91        31.0556   26.9793   -1.5316 H         1 UNK         0.0809 
     92 H92        31.6293   27.9731   -0.2016 H         1 UNK         0.0809 
     93 H93        30.8920   26.4076    0.1268 H         1 UNK         0.0809 
     94 H94        28.4961   26.0856   -0.4646 H         1 UNK         0.2990 
     95 H95        25.2849   26.7706   -1.7583 H         1 UNK         0.0690 
     96 H96        26.5137   26.2503   -3.8798 H         1 UNK         0.0788 
     97 H97        25.6838   24.8345   -3.2559 H         1 UNK         0.0788 
     98 H98        27.4286   24.9970   -3.0515 H         1 UNK         0.0788 
     99 H99        26.4310   24.3360   -0.8731 H         1 UNK         0.2993 
    100 H100       26.0982   24.8104    2.6268 H         1 UNK         0.0949 
    101 H101       24.3987   23.1535    0.6892 H         1 UNK         0.0767 
    102 H102       24.5625   22.8901    2.4259 H         1 UNK         0.0767 
    103 H103       23.7711   24.3376    1.8280 H         1 UNK         0.0767 
    104 H104       26.7676   22.4492    1.4095 H         1 UNK         0.3013 
    105 H105       26.3307   28.0082    2.2945 H         1 UNK         0.3121 
    106 H106       25.2324   29.9092    4.2175 H         1 UNK         0.0774 
    107 H107       24.0557   28.8004    1.6144 H         1 UNK         0.0815 
    108 H108       23.1794   29.6628    2.8696 H         1 UNK         0.0815 
    109 H109       23.8552   28.0771    3.2100 H         1 UNK         0.0815 
    110 H110       26.7491   30.1058    1.0412 H         1 UNK         0.2987 
    111 H111       25.6638   32.7364    0.3871 H         1 UNK         0.0949 
    112 H112       27.8393   31.0496   -0.9615 H         1 UNK         0.0806 
    113 H113       26.1326   31.0837   -1.4009 H         1 UNK         0.0806 
    114 H114       27.1253   32.5155   -1.6192 H         1 UNK         0.0806 
    115 H115       28.7727   31.4221    1.5741 H         1 UNK         0.3010 
    116 H116       29.7760   34.1926    2.1056 H         1 UNK         0.0829 
    117 H117       30.9140   33.2838    0.1199 H         1 UNK         0.0813 
    118 H118       32.0344   33.2920    1.4678 H         1 UNK         0.0813 
    119 H119       31.2855   31.7797    0.9483 H         1 UNK         0.0813 
    120 H120       31.6902   31.4192    2.9212 H         1 UNK         0.3038 
    121 H121       30.8250   31.0174    5.5997 H         1 UNK         0.0769 
    122 H122       33.3716   32.7136    5.1900 H         1 UNK         0.0811 
    123 H123       32.7796   32.1100    6.7331 H         1 UNK         0.0811 
    124 H124       31.8692   33.3283    5.8718 H         1 UNK         0.0811 
    125 H125       33.1087   30.0255    6.6788 H         1 UNK         0.3204 
    126 H126       33.5398   27.5479    5.4006 H         1 UNK         0.0748 
    127 H127       35.2788   27.2448    7.1621 H         1 UNK         0.0771 
    128 H128       35.1465   28.9427    7.5974 H         1 UNK         0.0771 
    129 H129       33.7757   27.8564    7.8321 H         1 UNK         0.0771 
    130 H130       34.6876   27.0532    3.6525 H         1 UNK         0.2980 
    131 H131       36.6414   28.8522    2.5109 H         1 UNK         0.0545 
    132 H132       39.7405   27.0900    2.9045 H         1 UNK         0.3459 
    133 H133       38.8507   28.0760    1.7744 H         1 UNK         0.3459 
    134 H134       35.1774   27.7944    0.9538 H         1 UNK         0.0616 
    135 H135       36.7541   27.1438    0.6745 H         1 UNK         0.0616 
    136 H136       33.1858   25.1132    0.4860 H         1 UNK         0.0634 
    137 H137       33.2571   26.7085    1.1860 H         1 UNK         0.0634 
@<TRIPOS>BOND
     1    1    2 1    
     2    1   72 1    
     3    1   73 1    
     4    1   74 1    
     5    2    3 2    
     6    2    4 am   BACKBONE|DICT|INTERRES
     7    4    5 1    
     8    4   75 1    
     9    5    6 1    
    10    5   35 1    
    11    5   76 1    
    12    6    7 1    
    13    6   77 1    
    14    6   78 1    
    15    7    8 1    
    16    8    9 1    
    17    8   79 1    
    18    8   80 1    
    19    9   10 ar   
    20    9   14 ar   
    21   10   11 ar   
    22   10   81 1    
    23   11   12 ar   
    24   11   71 1    
    25   12   13 ar   
    26   12   82 1    
    27   13   14 ar   
    28   13   15 1    
    29   14   83 1    
    30   15   16 1    
    31   15   84 1    
    32   15   85 1    
    33   16   17 1    
    34   17   18 1    
    35   17   86 1    
    36   17   87 1    
    37   18   19 1    
    38   18   37 1    
    39   18   88 1    
    40   19   20 am   BACKBONE|DICT|INTERRES
    41   19   89 1    
    42   20   21 2    
    43   20   22 1    
    44   22   23 1    
    45   22   24 1    
    46   22   90 1    
    47   23   91 1    
    48   23   92 1    
    49   23   93 1    
    50   24   25 am   BACKBONE|DICT|INTERRES
    51   24   94 1    
    52   25   26 2    
    53   25   27 1    
    54   27   28 1    
    55   27   29 1    
    56   27   95 1    
    57   28   96 1    
    58   28   97 1    
    59   28   98 1    
    60   29   30 am   BACKBONE|DICT|INTERRES
    61   29   99 1    
    62   30   31 2    
    63   30   32 1    
    64   32   33 1    
    65   32   34 1    
    66   32  100 1    
    67   33  101 1    
    68   33  102 1    
    69   33  103 1    
    70   34   35 am   BACKBONE|DICT|INTERRES
    71   34  104 1    
    72   35   36 2    
    73   37   38 2    
    74   37   39 am   BACKBONE|DICT|INTERRES
    75   39   40 1    
    76   39  105 1    
    77   40   41 1    
    78   40   42 1    
    79   40  106 1    
    80   41  107 1    
    81   41  108 1    
    82   41  109 1    
    83   42   43 2    
    84   42   44 am   BACKBONE|DICT|INTERRES
    85   44   45 1    
    86   44  110 1    
    87   45   46 1    
    88   45   47 1    
    89   45  111 1    
    90   46  112 1    
    91   46  113 1    
    92   46  114 1    
    93   47   48 2    
    94   47   49 am   BACKBONE|DICT|INTERRES
    95   49   50 1    
    96   49  115 1    
    97   50   51 1    
    98   50   52 1    
    99   50  116 1    
   100   51  117 1    
   101   51  118 1    
   102   51  119 1    
   103   52   53 2    
   104   52   54 am   BACKBONE|DICT|INTERRES
   105   54   55 1    
   106   54  120 1    
   107   55   56 1    
   108   55   57 1    
   109   55  121 1    
   110   56  122 1    
   111   56  123 1    
   112   56  124 1    
   113   57   58 2    
   114   57   59 am   BACKBONE|DICT|INTERRES
   115   59   60 1    
   116   59  125 1    
   117   60   61 1    
   118   60   62 1    
   119   60  126 1    
   120   61  127 1    
   121   61  128 1    
   122   61  129 1    
   123   62   63 2    
   124   62   64 am   BACKBONE|DICT|INTERRES
   125   64   65 1    
   126   64  130 1    
   127   65   66 1    
   128   65   69 1    
   129   65  131 1    
   130   66   67 am   BACKBONE|DICT|INTERRES
   131   66   68 2    
   132   67  132 1    
   133   67  133 1    
   134   69   70 1    
   135   69  134 1    
   136   69  135 1    
   137   70   71 1    
   138   71  136 1    
   139   71  137 1    
@<TRIPOS>SUBSTRUCTURE
     1 UNK         1 GROUP             0       ****    0 ROOT    
