@<TRIPOS>MOLECULE
3R136
137   139    1
SMALL
USER_CHARGES


@<TRIPOS>ATOM
      1 CA         27.5698   24.0490   -2.8084 C.3       0 UNK        -0.1979 
      2 C          28.2119   23.9799   -1.4317 C.2       0 UNK         0.4864 
      3 O          28.1514   24.9626   -0.6870 O.2       0 UNK        -0.5359 
      4 N          28.8109   22.8265   -1.0939 N.am      1 UNK        -0.4318 
      5 CA         29.4762   22.5369    0.1823 C.3       1 UNK         0.0824 
      6 C6         30.0445   21.0958    0.2384 C.3       12 UNK        -0.0944 
      7 S7         31.4637   20.8785   -0.8874 S.3       12 UNK        -0.2672 
      8 C8         32.8751   21.0500    0.2603 C.3       12 UNK         0.0333 
      9 C9         32.8336   22.3737    1.0122 C.ar      12 UNK        -0.0807 
     10 C10        32.5693   22.4028    2.3859 C.ar      12 UNK        -0.0894 
     11 C11        32.4425   23.6176    3.0685 C.ar      12 UNK        -0.0804 
     12 C12        32.5972   24.8108    2.3518 C.ar      12 UNK        -0.0824 
     13 C13        32.8566   24.7957    0.9792 C.ar      12 UNK        -0.0762 
     14 C14        32.9977   23.5746    0.3180 C.ar      12 UNK        -0.0782 
     15 C15        32.9267   26.0972    0.1974 C.3       12 UNK         0.0230 
     16 S16        31.2606   26.6313   -0.3098 S.3       12 UNK        -0.2608 
     17 C17        30.5853   27.2392    1.2715 C.3       12 UNK        -0.0989 
     18 CA         29.5207   28.3375    1.0658 C.3       5 UNK         0.0716 
     19 N          28.3215   27.8301    0.3896 N.am      5 UNK        -0.4135 
     20 C          27.3139   28.5894   -0.0676 C.2       4 UNK         0.5031 
     21 O          27.2408   29.8081    0.1000 O.2       4 UNK        -0.5229 
     22 CA         26.1878   27.8641   -0.8150 C.3       4 UNK         0.0329 
     23 CB         26.5835   27.6213   -2.2805 C.3       4 UNK        -0.2001 
     24 N          25.8812   26.5886   -0.1653 N.am      4 UNK        -0.4303 
     25 C          24.8588   26.4000    0.6784 C.2       3 UNK         0.5044 
     26 O          24.0000   27.2488    0.9223 O.2       3 UNK        -0.5152 
     27 CA         24.7830   25.0364    1.3875 C.3       3 UNK         0.0319 
     28 CB         24.1913   23.9734    0.4476 C.3       3 UNK        -0.2001 
     29 N          26.0577   24.5481    1.9225 N.am      3 UNK        -0.4354 
     30 C          26.8814   25.1954    2.7579 C.2       2 UNK         0.4964 
     31 O          26.7025   26.3528    3.1290 O.2       2 UNK        -0.5047 
     32 CA         28.1288   24.4400    3.2592 C.3       2 UNK         0.0288 
     33 CB         27.7727   23.4501    4.3849 C.3       2 UNK        -0.2113 
     34 N          28.9048   23.7977    2.1904 N.am      2 UNK        -0.4145 
     35 C          28.5384   22.8014    1.3716 C.2       1 UNK         0.5006 
     36 O          27.4929   22.1545    1.4770 O.2       1 UNK        -0.5103 
     37 C          29.2540   29.0856    2.3896 C.2       5 UNK         0.5055 
     38 O          30.1338   29.8290    2.8203 O.2       5 UNK        -0.5220 
     39 N          28.0745   28.9229    3.0071 N.am      6 UNK        -0.4450 
     40 CA         27.6303   29.6951    4.1737 C.3       6 UNK         0.0367 
     41 CB         26.2705   29.1664    4.6579 C.3       6 UNK        -0.1929 
     42 C          27.5535   31.2167    3.9368 C.2       6 UNK         0.5070 
     43 O          27.6728   31.9711    4.9026 O.2       6 UNK        -0.5237 
     44 N          27.3667   31.6477    2.6784 N.am      7 UNK        -0.4739 
     45 CA         27.4222   33.0587    2.2820 C.3       7 UNK         0.0276 
     46 CB         26.8528   33.2228    0.8634 C.3       7 UNK        -0.1927 
     47 C          28.8522   33.6201    2.3736 C.2       7 UNK         0.5013 
     48 O          29.0553   34.6781    2.9701 O.2       7 UNK        -0.5193 
     49 N          29.8092   32.8745    1.8109 N.am      8 UNK        -0.4253 
     50 CA         31.2523   33.0891    1.8641 C.3       8 UNK         0.0242 
     51 CB         31.6620   34.3667    1.1046 C.3       8 UNK        -0.2000 
     52 C          31.9070   31.8530    1.2250 C.2       8 UNK         0.4948 
     53 O          31.3544   31.3406    0.2510 O.2       8 UNK        -0.5275 
     54 N          33.0483   31.3514    1.7165 N.am      9 UNK        -0.4246 
     55 CA         33.8768   31.8566    2.8161 C.3       9 UNK         0.0261 
     56 CB         35.3542   31.6356    2.4387 C.3       9 UNK        -0.1959 
     57 C          33.5476   31.2139    4.1818 C.2       9 UNK         0.5033 
     58 O          34.4176   31.2004    5.0543 O.2       9 UNK        -0.5390 
     59 N          32.3323   30.6669    4.3552 N.am      10 UNK        -0.4215 
     60 CA         31.8232   30.0206    5.5767 C.3       10 UNK         0.0240 
     61 CB         31.6354   31.0544    6.7075 C.3       10 UNK        -0.1982 
     62 C          32.6531   28.7937    6.0043 C.2       10 UNK         0.4970 
     63 O          32.8466   28.5643    7.1993 O.2       10 UNK        -0.4916 
     64 N          33.1416   28.0478    5.0036 N.am      11 UNK        -0.4279 
     65 CA         34.0525   26.8963    5.1281 C.3       11 UNK         0.1003 
     66 C          35.4908   27.2610    5.6129 C.2       11 UNK         0.5709 
     67 N          35.8803   28.5306    5.6709 N.am      11 UNK        -0.7358 
     68 O          36.2879   26.3735    5.9080 O.2       11 UNK        -0.4999 
     69 C69        33.4440   25.6959    5.9155 C.3       12 UNK        -0.0954 
     70 S70        31.7748   25.1909    5.3613 S.3       12 UNK        -0.2268 
     71 C71        32.0908   23.5770    4.5587 C.3       12 UNK         0.0203 
     72 H72        26.5258   24.3485   -2.7206 H         1 UNK         0.0888 
     73 H73        28.0860   24.7846   -3.4244 H         1 UNK         0.0888 
     74 H74        27.6046   23.0894   -3.3237 H         1 UNK         0.0888 
     75 H75        28.8160   22.0652   -1.7570 H         1 UNK         0.3017 
     76 H76        30.3036   23.2426    0.2535 H         1 UNK         0.0873 
     77 H77        30.3603   20.8342    1.2503 H         1 UNK         0.0745 
     78 H78        29.2737   20.3698   -0.0269 H         1 UNK         0.0745 
     79 H79        33.8052   20.9843   -0.3059 H         1 UNK         0.0705 
     80 H80        32.8765   20.2074    0.9537 H         1 UNK         0.0705 
     81 H81        32.4310   21.4741    2.9232 H         1 UNK         0.1334 
     82 H82        32.4825   25.7631    2.8435 H         1 UNK         0.1417 
     83 H83        33.1779   23.5558   -0.7486 H         1 UNK         0.1562 
     84 H84        33.5401   25.9657   -0.6953 H         1 UNK         0.0748 
     85 H85        33.4128   26.8763    0.7865 H         1 UNK         0.0748 
     86 H86        31.4165   27.6311    1.8605 H         1 UNK         0.0940 
     87 H87        30.1722   26.4031    1.8353 H         1 UNK         0.0940 
     88 H88        29.9485   29.0854    0.3956 H         1 UNK         0.0703 
     89 H89        28.3261   26.8428    0.1548 H         1 UNK         0.3081 
     90 H90        25.3093   28.5129   -0.8099 H         1 UNK         0.0719 
     91 H91        27.5029   27.0416   -2.3644 H         1 UNK         0.0809 
     92 H92        25.7998   27.0896   -2.8202 H         1 UNK         0.0809 
     93 H93        26.7497   28.5672   -2.7977 H         1 UNK         0.0809 
     94 H94        26.5630   25.8430   -0.2873 H         1 UNK         0.2990 
     95 H95        24.1075   25.1514    2.2375 H         1 UNK         0.0690 
     96 H96        24.8525   23.7674   -0.3952 H         1 UNK         0.0788 
     97 H97        23.2331   24.2995    0.0405 H         1 UNK         0.0788 
     98 H98        24.0163   23.0339    0.9723 H         1 UNK         0.0788 
     99 H99        26.3269   23.6008    1.6687 H         1 UNK         0.2993 
    100 H100       28.7916   25.1917    3.6919 H         1 UNK         0.0949 
    101 H101       27.0912   22.6689    4.0475 H         1 UNK         0.0767 
    102 H102       28.6646   22.9674    4.7837 H         1 UNK         0.0767 
    103 H103       27.2865   23.9665    5.2136 H         1 UNK         0.0767 
    104 H104       29.7844   24.2489    1.9830 H         1 UNK         0.3013 
    105 H105       27.4326   28.2159    2.6643 H         1 UNK         0.3121 
    106 H106       28.3592   29.5336    4.9701 H         1 UNK         0.0774 
    107 H107       25.8855   29.7662    5.4840 H         1 UNK         0.0815 
    108 H108       25.5238   29.1853    3.8630 H         1 UNK         0.0815 
    109 H109       26.3507   28.1422    5.0212 H         1 UNK         0.0815 
    110 H110       27.2736   30.9635    1.9350 H         1 UNK         0.2987 
    111 H111       26.7947   33.6322    2.9681 H         1 UNK         0.0949 
    112 H112       27.4203   32.6512    0.1278 H         1 UNK         0.0806 
    113 H113       25.8153   32.8917    0.8132 H         1 UNK         0.0806 
    114 H114       26.8750   34.2683    0.5530 H         1 UNK         0.0806 
    115 H115       29.5483   32.0128    1.3465 H         1 UNK         0.3010 
    116 H116       31.5256   33.1737    2.9160 H         1 UNK         0.0829 
    117 H117       32.7464   34.4835    1.0934 H         1 UNK         0.0813 
    118 H118       31.3262   34.3405    0.0672 H         1 UNK         0.0813 
    119 H119       31.2499   35.2632    1.5670 H         1 UNK         0.0813 
    120 H120       33.4106   30.5263    1.2617 H         1 UNK         0.3038 
    121 H121       33.7388   32.9328    2.9260 H         1 UNK         0.0769 
    122 H122       36.0223   32.0814    3.1770 H         1 UNK         0.0811 
    123 H123       35.5921   32.0943    1.4787 H         1 UNK         0.0811 
    124 H124       35.6013   30.5750    2.3748 H         1 UNK         0.0811 
    125 H125       31.6793   30.6367    3.5744 H         1 UNK         0.3204 
    126 H126       30.8345   29.6320    5.3322 H         1 UNK         0.0748 
    127 H127       31.1415   30.6060    7.5703 H         1 UNK         0.0771 
    128 H128       32.5883   31.4578    7.0515 H         1 UNK         0.0771 
    129 H129       31.0150   31.8887    6.3796 H         1 UNK         0.0771 
    130 H130       32.9388   28.3419    4.0610 H         1 UNK         0.2980 
    131 H131       34.2112   26.5546    4.1062 H         1 UNK         0.0545 
    132 H132       36.8182   28.7378    5.9744 H         1 UNK         0.3459 
    133 H133       35.2475   29.2901    5.4509 H         1 UNK         0.3459 
    134 H134       34.1099   24.8339    5.8545 H         1 UNK         0.0616 
    135 H135       33.3769   25.9386    6.9770 H         1 UNK         0.0616 
    136 H136       32.8704   23.0420    5.1022 H         1 UNK         0.0634 
    137 H137       31.1840   22.9815    4.6717 H         1 UNK         0.0634 
@<TRIPOS>BOND
     1    1    2 1    
     2    1   72 1    
     3    1   73 1    
     4    1   74 1    
     5    2    3 2    
     6    2    4 am   BACKBONE|DICT|INTERRES
     7    4    5 1    
     8    4   75 1    
     9    5    6 1    
    10    5   35 1    
    11    5   76 1    
    12    6    7 1    
    13    6   77 1    
    14    6   78 1    
    15    7    8 1    
    16    8    9 1    
    17    8   79 1    
    18    8   80 1    
    19    9   10 ar   
    20    9   14 ar   
    21   10   11 ar   
    22   10   81 1    
    23   11   12 ar   
    24   11   71 1    
    25   12   13 ar   
    26   12   82 1    
    27   13   14 ar   
    28   13   15 1    
    29   14   83 1    
    30   15   16 1    
    31   15   84 1    
    32   15   85 1    
    33   16   17 1    
    34   17   18 1    
    35   17   86 1    
    36   17   87 1    
    37   18   19 1    
    38   18   37 1    
    39   18   88 1    
    40   19   20 am   BACKBONE|DICT|INTERRES
    41   19   89 1    
    42   20   21 2    
    43   20   22 1    
    44   22   23 1    
    45   22   24 1    
    46   22   90 1    
    47   23   91 1    
    48   23   92 1    
    49   23   93 1    
    50   24   25 am   BACKBONE|DICT|INTERRES
    51   24   94 1    
    52   25   26 2    
    53   25   27 1    
    54   27   28 1    
    55   27   29 1    
    56   27   95 1    
    57   28   96 1    
    58   28   97 1    
    59   28   98 1    
    60   29   30 am   BACKBONE|DICT|INTERRES
    61   29   99 1    
    62   30   31 2    
    63   30   32 1    
    64   32   33 1    
    65   32   34 1    
    66   32  100 1    
    67   33  101 1    
    68   33  102 1    
    69   33  103 1    
    70   34   35 am   BACKBONE|DICT|INTERRES
    71   34  104 1    
    72   35   36 2    
    73   37   38 2    
    74   37   39 am   BACKBONE|DICT|INTERRES
    75   39   40 1    
    76   39  105 1    
    77   40   41 1    
    78   40   42 1    
    79   40  106 1    
    80   41  107 1    
    81   41  108 1    
    82   41  109 1    
    83   42   43 2    
    84   42   44 am   BACKBONE|DICT|INTERRES
    85   44   45 1    
    86   44  110 1    
    87   45   46 1    
    88   45   47 1    
    89   45  111 1    
    90   46  112 1    
    91   46  113 1    
    92   46  114 1    
    93   47   48 2    
    94   47   49 am   BACKBONE|DICT|INTERRES
    95   49   50 1    
    96   49  115 1    
    97   50   51 1    
    98   50   52 1    
    99   50  116 1    
   100   51  117 1    
   101   51  118 1    
   102   51  119 1    
   103   52   53 2    
   104   52   54 am   BACKBONE|DICT|INTERRES
   105   54   55 1    
   106   54  120 1    
   107   55   56 1    
   108   55   57 1    
   109   55  121 1    
   110   56  122 1    
   111   56  123 1    
   112   56  124 1    
   113   57   58 2    
   114   57   59 am   BACKBONE|DICT|INTERRES
   115   59   60 1    
   116   59  125 1    
   117   60   61 1    
   118   60   62 1    
   119   60  126 1    
   120   61  127 1    
   121   61  128 1    
   122   61  129 1    
   123   62   63 2    
   124   62   64 am   BACKBONE|DICT|INTERRES
   125   64   65 1    
   126   64  130 1    
   127   65   66 1    
   128   65   69 1    
   129   65  131 1    
   130   66   67 am   BACKBONE|DICT|INTERRES
   131   66   68 2    
   132   67  132 1    
   133   67  133 1    
   134   69   70 1    
   135   69  134 1    
   136   69  135 1    
   137   70   71 1    
   138   71  136 1    
   139   71  137 1    
@<TRIPOS>SUBSTRUCTURE
     1 UNK         1 GROUP             0       ****    0 ROOT    
