@<TRIPOS>MOLECULE
3R136
137   139    1
SMALL
USER_CHARGES


@<TRIPOS>ATOM
      1 CA         29.9617   29.8738   -2.5760 C.3       0 UNK        -0.1979 
      2 C          29.1456   28.7220   -2.0117 C.2       0 UNK         0.4864 
      3 O          27.9156   28.7544   -2.0648 O.2       0 UNK        -0.5359 
      4 N          29.8154   27.6848   -1.4895 N.am      1 UNK        -0.4318 
      5 CA         29.2057   26.5372   -0.8019 C.3       1 UNK         0.0824 
      6 C6         30.1559   25.8693    0.2205 C.3       12 UNK        -0.0944 
      7 S7         31.7914   25.4166   -0.4518 S.3       12 UNK        -0.2672 
      8 C8         32.1588   23.8690    0.4441 C.3       12 UNK         0.0333 
      9 C9         31.8826   23.9427    1.9446 C.ar      12 UNK        -0.0807 
     10 C10        32.3730   24.9993    2.7223 C.ar      12 UNK        -0.0894 
     11 C11        32.0878   25.0653    4.0897 C.ar      12 UNK        -0.0804 
     12 C12        31.3296   24.0522    4.6851 C.ar      12 UNK        -0.0824 
     13 C13        30.8414   22.9877    3.9217 C.ar      12 UNK        -0.0762 
     14 C14        31.1218   22.9394    2.5538 C.ar      12 UNK        -0.0782 
     15 C15        30.0129   21.8864    4.5712 C.3       12 UNK         0.0230 
     16 S16        28.2453   22.0052    4.1382 S.3       12 UNK        -0.2608 
     17 C17        27.7938   23.6116    4.8738 C.3       12 UNK        -0.0989 
     18 CA         27.6787   24.7174    3.7965 C.3       5 UNK         0.0716 
     19 N          26.5452   24.4812    2.8955 N.am      5 UNK        -0.4135 
     20 C          26.2156   25.2402    1.8424 C.2       4 UNK         0.5031 
     21 O          26.8309   26.2585    1.5236 O.2       4 UNK        -0.5229 
     22 CA         25.0261   24.7370    1.0004 C.3       4 UNK         0.0329 
     23 CB         23.7149   24.6965    1.8156 C.3       4 UNK        -0.2001 
     24 N          24.8543   25.4681   -0.2638 N.am      4 UNK        -0.4303 
     25 C          24.4292   26.7267   -0.4589 C.2       3 UNK         0.5044 
     26 O          24.0240   27.4658    0.4400 O.2       3 UNK        -0.5152 
     27 CA         24.4500   27.2425   -1.9158 C.3       3 UNK         0.0319 
     28 CB         24.3475   28.7773   -1.9973 C.3       3 UNK        -0.2001 
     29 N          25.6588   26.8179   -2.6265 N.am      3 UNK        -0.4354 
     30 C          25.7971   25.6806   -3.3280 C.2       2 UNK         0.4964 
     31 O          24.8784   24.8852   -3.5218 O.2       2 UNK        -0.5047 
     32 CA         27.2098   25.3376   -3.8458 C.3       2 UNK         0.0288 
     33 CB         27.4010   25.8505   -5.2819 C.3       2 UNK        -0.2113 
     34 N          28.2550   25.8980   -2.9871 N.am      2 UNK        -0.4145 
     35 C          28.4566   25.5361   -1.7117 C.2       1 UNK         0.5006 
     36 O          27.9969   24.4979   -1.2319 O.2       1 UNK        -0.5103 
     37 C          27.6384   26.1094    4.4585 C.2       5 UNK         0.5055 
     38 O          26.5607   26.6080    4.7891 O.2       5 UNK        -0.5220 
     39 N          28.8347   26.6850    4.6435 N.am      6 UNK        -0.4450 
     40 CA         29.1424   27.9969    5.2304 C.3       6 UNK         0.0367 
     41 CB         28.5108   28.1791    6.6254 C.3       6 UNK        -0.1929 
     42 C          28.8650   29.2023    4.3151 C.2       6 UNK         0.5070 
     43 O          29.3722   30.2838    4.6125 O.2       6 UNK        -0.5237 
     44 N          28.1524   29.0197    3.1919 N.am      7 UNK        -0.4739 
     45 CA         27.8697   30.0806    2.2119 C.3       7 UNK         0.0276 
     46 CB         26.8222   29.5882    1.2023 C.3       7 UNK        -0.1927 
     47 C          29.1208   30.6145    1.4857 C.2       7 UNK         0.5013 
     48 O          29.0863   31.7282    0.9625 O.2       7 UNK        -0.5193 
     49 N          30.2086   29.8306    1.4951 N.am      8 UNK        -0.4253 
     50 CA         31.5357   30.2299    1.0236 C.3       8 UNK         0.0242 
     51 CB         32.3983   28.9728    0.8199 C.3       8 UNK        -0.2000 
     52 C          32.2667   31.1991    1.9697 C.2       8 UNK         0.4948 
     53 O          33.2541   31.7969    1.5427 O.2       8 UNK        -0.5275 
     54 N          31.8411   31.2897    3.2416 N.am      9 UNK        -0.4246 
     55 CA         32.4129   32.0719    4.3535 C.3       9 UNK         0.0261 
     56 CB         32.3460   33.5830    4.0590 C.3       9 UNK        -0.1959 
     57 C          33.8328   31.6654    4.8068 C.2       9 UNK         0.5033 
     58 O          34.1669   31.8765    5.9735 O.2       9 UNK        -0.5390 
     59 N          34.6316   31.0782    3.9058 N.am      10 UNK        -0.4215 
     60 CA         36.0305   30.6661    4.0733 C.3       10 UNK         0.0240 
     61 CB         36.5131   30.0227    2.7626 C.3       10 UNK        -0.1982 
     62 C          36.3207   29.7301    5.2617 C.2       10 UNK         0.4970 
     63 O          37.4535   29.7227    5.7459 O.2       10 UNK        -0.4916 
     64 N          35.3128   28.9749    5.7174 N.am      11 UNK        -0.4279 
     65 CA         35.3774   28.1620    6.9424 C.3       11 UNK         0.1003 
     66 C          35.4378   28.9926    8.2604 C.2       11 UNK         0.5709 
     67 N          35.1232   30.2837    8.2584 N.am      11 UNK        -0.7358 
     68 O          35.7842   28.4511    9.3076 O.2       11 UNK        -0.4999 
     69 C69        34.2300   27.1217    7.0135 C.3       12 UNK        -0.0954 
     70 S70        34.2230   25.9405    5.6207 S.3       12 UNK        -0.2268 
     71 C71        32.5712   26.2395    4.9266 C.3       12 UNK         0.0203 
     72 H72        29.7236   30.7930   -2.0409 H         1 UNK         0.0888 
     73 H73        31.0333   29.6970   -2.4868 H         1 UNK         0.0888 
     74 H74        29.7262   30.0211   -3.6296 H         1 UNK         0.0888 
     75 H75        30.8249   27.6680   -1.5264 H         1 UNK         0.3017 
     76 H76        28.4047   26.9682   -0.2053 H         1 UNK         0.0873 
     77 H77        29.6808   24.9970    0.6734 H         1 UNK         0.0745 
     78 H78        30.3278   26.5578    1.0486 H         1 UNK         0.0745 
     79 H79        31.5754   23.0688   -0.0144 H         1 UNK         0.0705 
     80 H80        33.2075   23.6127    0.2895 H         1 UNK         0.0705 
     81 H81        32.9632   25.7779    2.2583 H         1 UNK         0.1334 
     82 H82        31.1176   24.0949    5.7451 H         1 UNK         0.1417 
     83 H83        30.7373   22.1183    1.9636 H         1 UNK         0.1562 
     84 H84        30.1213   21.9061    5.6569 H         1 UNK         0.0748 
     85 H85        30.3895   20.9149    4.2477 H         1 UNK         0.0748 
     86 H86        28.5333   23.8701    5.6342 H         1 UNK         0.0940 
     87 H87        26.8495   23.4991    5.4102 H         1 UNK         0.0940 
     88 H88        28.5729   24.6839    3.1699 H         1 UNK         0.0703 
     89 H89        25.9957   23.6584    3.0924 H         1 UNK         0.3081 
     90 H90        25.2678   23.7141    0.7071 H         1 UNK         0.0719 
     91 H91        23.4798   25.6658    2.2564 H         1 UNK         0.0809 
     92 H92        22.8703   24.3965    1.1952 H         1 UNK         0.0809 
     93 H93        23.7794   23.9803    2.6351 H         1 UNK         0.0809 
     94 H94        25.1792   24.9721   -1.0823 H         1 UNK         0.2990 
     95 H95        23.5716   26.8258   -2.4128 H         1 UNK         0.0690 
     96 H96        24.3511   29.1207   -3.0319 H         1 UNK         0.0788 
     97 H97        25.1776   29.2617   -1.4812 H         1 UNK         0.0788 
     98 H98        23.4236   29.1360   -1.5419 H         1 UNK         0.0788 
     99 H99        26.4718   27.4135   -2.4930 H         1 UNK         0.2993 
    100 H100       27.3114   24.2501   -3.8464 H         1 UNK         0.0949 
    101 H101       28.3767   25.5671   -5.6775 H         1 UNK         0.0767 
    102 H102       26.6472   25.4297   -5.9489 H         1 UNK         0.0767 
    103 H103       27.3171   26.9368   -5.3384 H         1 UNK         0.0767 
    104 H104       28.6676   26.7684   -3.2899 H         1 UNK         0.3013 
    105 H105       29.6423   26.1739    4.3142 H         1 UNK         0.3121 
    106 H106       30.2222   28.0006    5.3767 H         1 UNK         0.0774 
    107 H107       28.8919   29.0802    7.1077 H         1 UNK         0.0815 
    108 H108       27.4265   28.2801    6.5754 H         1 UNK         0.0815 
    109 H109       28.7424   27.3396    7.2807 H         1 UNK         0.0815 
    110 H110       27.7472   28.1100    3.0084 H         1 UNK         0.2987 
    111 H111       27.4388   30.9234    2.7571 H         1 UNK         0.0949 
    112 H112       27.1899   28.7503    0.6126 H         1 UNK         0.0806 
    113 H113       25.9067   29.2665    1.6993 H         1 UNK         0.0806 
    114 H114       26.5506   30.3788    0.5016 H         1 UNK         0.0806 
    115 H115       30.1299   28.9284    1.9389 H         1 UNK         0.3010 
    116 H116       31.4263   30.7361    0.0623 H         1 UNK         0.0829 
    117 H117       31.9815   28.3266    0.0523 H         1 UNK         0.0813 
    118 H118       33.4065   29.2342    0.4947 H         1 UNK         0.0813 
    119 H119       32.4943   28.3894    1.7364 H         1 UNK         0.0813 
    120 H120       31.0084   30.7685    3.4980 H         1 UNK         0.3038 
    121 H121       31.7593   31.8774    5.2056 H         1 UNK         0.0769 
    122 H122       31.3296   33.8944    3.8182 H         1 UNK         0.0811 
    123 H123       32.9904   33.8662    3.2262 H         1 UNK         0.0811 
    124 H124       32.6655   34.1627    4.9261 H         1 UNK         0.0811 
    125 H125       34.2709   31.0582    2.9559 H         1 UNK         0.3204 
    126 H126       36.6089   31.5768    4.2405 H         1 UNK         0.0748 
    127 H127       36.4242   30.7140    1.9241 H         1 UNK         0.0771 
    128 H128       37.5626   29.7323    2.8303 H         1 UNK         0.0771 
    129 H129       35.9407   29.1261    2.5203 H         1 UNK         0.0771 
    130 H130       34.4149   29.0394    5.2652 H         1 UNK         0.2980 
    131 H131       36.3146   27.6033    6.9040 H         1 UNK         0.0545 
    132 H132       34.8306   30.7554    7.4073 H         1 UNK         0.3459 
    133 H133       35.1734   30.8008    9.1213 H         1 UNK         0.3459 
    134 H134       33.2689   27.6346    7.0779 H         1 UNK         0.0616 
    135 H135       34.3126   26.5279    7.9258 H         1 UNK         0.0616 
    136 H136       31.8677   26.4055    5.7431 H         1 UNK         0.0634 
    137 H137       32.5865   27.1548    4.3328 H         1 UNK         0.0634 
@<TRIPOS>BOND
     1    1    2 1    
     2    1   72 1    
     3    1   73 1    
     4    1   74 1    
     5    2    3 2    
     6    2    4 am   BACKBONE|DICT|INTERRES
     7    4    5 1    
     8    4   75 1    
     9    5    6 1    
    10    5   35 1    
    11    5   76 1    
    12    6    7 1    
    13    6   77 1    
    14    6   78 1    
    15    7    8 1    
    16    8    9 1    
    17    8   79 1    
    18    8   80 1    
    19    9   10 ar   
    20    9   14 ar   
    21   10   11 ar   
    22   10   81 1    
    23   11   12 ar   
    24   11   71 1    
    25   12   13 ar   
    26   12   82 1    
    27   13   14 ar   
    28   13   15 1    
    29   14   83 1    
    30   15   16 1    
    31   15   84 1    
    32   15   85 1    
    33   16   17 1    
    34   17   18 1    
    35   17   86 1    
    36   17   87 1    
    37   18   19 1    
    38   18   37 1    
    39   18   88 1    
    40   19   20 am   BACKBONE|DICT|INTERRES
    41   19   89 1    
    42   20   21 2    
    43   20   22 1    
    44   22   23 1    
    45   22   24 1    
    46   22   90 1    
    47   23   91 1    
    48   23   92 1    
    49   23   93 1    
    50   24   25 am   BACKBONE|DICT|INTERRES
    51   24   94 1    
    52   25   26 2    
    53   25   27 1    
    54   27   28 1    
    55   27   29 1    
    56   27   95 1    
    57   28   96 1    
    58   28   97 1    
    59   28   98 1    
    60   29   30 am   BACKBONE|DICT|INTERRES
    61   29   99 1    
    62   30   31 2    
    63   30   32 1    
    64   32   33 1    
    65   32   34 1    
    66   32  100 1    
    67   33  101 1    
    68   33  102 1    
    69   33  103 1    
    70   34   35 am   BACKBONE|DICT|INTERRES
    71   34  104 1    
    72   35   36 2    
    73   37   38 2    
    74   37   39 am   BACKBONE|DICT|INTERRES
    75   39   40 1    
    76   39  105 1    
    77   40   41 1    
    78   40   42 1    
    79   40  106 1    
    80   41  107 1    
    81   41  108 1    
    82   41  109 1    
    83   42   43 2    
    84   42   44 am   BACKBONE|DICT|INTERRES
    85   44   45 1    
    86   44  110 1    
    87   45   46 1    
    88   45   47 1    
    89   45  111 1    
    90   46  112 1    
    91   46  113 1    
    92   46  114 1    
    93   47   48 2    
    94   47   49 am   BACKBONE|DICT|INTERRES
    95   49   50 1    
    96   49  115 1    
    97   50   51 1    
    98   50   52 1    
    99   50  116 1    
   100   51  117 1    
   101   51  118 1    
   102   51  119 1    
   103   52   53 2    
   104   52   54 am   BACKBONE|DICT|INTERRES
   105   54   55 1    
   106   54  120 1    
   107   55   56 1    
   108   55   57 1    
   109   55  121 1    
   110   56  122 1    
   111   56  123 1    
   112   56  124 1    
   113   57   58 2    
   114   57   59 am   BACKBONE|DICT|INTERRES
   115   59   60 1    
   116   59  125 1    
   117   60   61 1    
   118   60   62 1    
   119   60  126 1    
   120   61  127 1    
   121   61  128 1    
   122   61  129 1    
   123   62   63 2    
   124   62   64 am   BACKBONE|DICT|INTERRES
   125   64   65 1    
   126   64  130 1    
   127   65   66 1    
   128   65   69 1    
   129   65  131 1    
   130   66   67 am   BACKBONE|DICT|INTERRES
   131   66   68 2    
   132   67  132 1    
   133   67  133 1    
   134   69   70 1    
   135   69  134 1    
   136   69  135 1    
   137   70   71 1    
   138   71  136 1    
   139   71  137 1    
@<TRIPOS>SUBSTRUCTURE
     1 UNK         1 GROUP             0       ****    0 ROOT    
