@<TRIPOS>MOLECULE
3R136
137   139    1
SMALL
USER_CHARGES


@<TRIPOS>ATOM
      1 CA         32.0277   20.0524   -1.2749 C.3       0 UNK        -0.1979 
      2 C          31.1753   21.0171   -0.4651 C.2       0 UNK         0.4864 
      3 O          31.1049   22.2016   -0.7974 O.2       0 UNK        -0.5359 
      4 N          30.5089   20.5213    0.5860 N.am      1 UNK        -0.4318 
      5 CA         29.6860   21.2937    1.5290 C.3       1 UNK         0.0824 
      6 C6         29.5753   20.5912    2.9102 C.3       12 UNK        -0.0944 
      7 S7         31.2044   20.1862    3.6322 S.3       12 UNK        -0.2672 
      8 C8         31.4751   21.5752    4.7812 C.3       12 UNK         0.0333 
      9 C9         31.4968   22.9225    4.0712 C.ar      12 UNK        -0.0807 
     10 C10        32.4732   23.1995    3.1091 C.ar      12 UNK        -0.0894 
     11 C11        32.4870   24.4288    2.4421 C.ar      12 UNK        -0.0804 
     12 C12        31.5217   25.3894    2.7530 C.ar      12 UNK        -0.0824 
     13 C13        30.5514   25.1297    3.7240 C.ar      12 UNK        -0.0762 
     14 C14        30.5386   23.8936    4.3757 C.ar      12 UNK        -0.0782 
     15 C15        29.5246   26.1895    4.0768 C.3       12 UNK         0.0230 
     16 S16        28.1066   26.1348    2.9418 S.3       12 UNK        -0.2608 
     17 C17        27.1297   27.5175    3.6167 C.3       12 UNK        -0.0989 
     18 CA         27.5628   28.8665    2.9998 C.3       5 UNK         0.0716 
     19 N          27.2570   28.9448    1.5729 N.am      5 UNK        -0.4135 
     20 C          27.6187   29.9275    0.7408 C.2       4 UNK         0.5031 
     21 O          28.2229   30.9414    1.1007 O.2       4 UNK        -0.5229 
     22 CA         27.3180   29.6943   -0.7544 C.3       4 UNK         0.0329 
     23 CB         27.6741   30.9178   -1.6197 C.3       4 UNK        -0.2001 
     24 N          28.0421   28.5245   -1.2671 N.am      4 UNK        -0.4303 
     25 C          27.7436   27.2468   -0.9931 C.2       3 UNK         0.5044 
     26 O          26.7434   26.9125   -0.3510 O.2       3 UNK        -0.5152 
     27 CA         28.7579   26.1894   -1.4699 C.3       3 UNK         0.0319 
     28 CB         30.1590   26.4559   -0.8882 C.3       3 UNK        -0.2001 
     29 N          28.3580   24.8442   -1.0618 N.am      3 UNK        -0.4354 
     30 C          27.4547   24.0729   -1.6803 C.2       2 UNK         0.4964 
     31 O          26.8898   24.3889   -2.7291 O.2       2 UNK        -0.5047 
     32 CA         27.1536   22.7140   -1.0215 C.3       2 UNK         0.0288 
     33 CB         26.7313   21.6362   -2.0388 C.3       2 UNK        -0.2113 
     34 N          28.3162   22.2432   -0.2674 N.am      2 UNK        -0.4145 
     35 C          28.3043   21.6585    0.9347 C.2       1 UNK         0.5006 
     36 O          27.2700   21.4021    1.5548 O.2       1 UNK        -0.5103 
     37 C          26.9715   30.0511    3.7795 C.2       5 UNK         0.5055 
     38 O          25.7893   30.3598    3.6149 O.2       5 UNK        -0.5220 
     39 N          27.8205   30.7019    4.5863 N.am      6 UNK        -0.4450 
     40 CA         27.5842   31.8967    5.4096 C.3       6 UNK         0.0367 
     41 CB         26.4267   31.6923    6.4068 C.3       6 UNK        -0.1929 
     42 C          27.4074   33.1953    4.6013 C.2       6 UNK         0.5070 
     43 O          27.8069   34.2551    5.0839 O.2       6 UNK        -0.5237 
     44 N          26.8477   33.1025    3.3881 N.am      7 UNK        -0.4739 
     45 CA         26.7402   34.1952    2.4207 C.3       7 UNK         0.0276 
     46 CB         25.8064   33.7725    1.2754 C.3       7 UNK        -0.1927 
     47 C          28.1108   34.6298    1.8747 C.2       7 UNK         0.5013 
     48 O          28.3312   35.8274    1.6880 O.2       7 UNK        -0.5193 
     49 N          29.0046   33.6581    1.6499 N.am      8 UNK        -0.4253 
     50 CA         30.3793   33.8811    1.2052 C.3       8 UNK         0.0242 
     51 CB         30.4302   33.9973   -0.3291 C.3       8 UNK        -0.2000 
     52 C          31.3376   32.7904    1.7029 C.2       8 UNK         0.4948 
     53 O          32.4559   33.1201    2.1011 O.2       8 UNK        -0.5275 
     54 N          30.9135   31.5207    1.6525 N.am      9 UNK        -0.4246 
     55 CA         31.7444   30.3654    1.9940 C.3       9 UNK         0.0261 
     56 CB         31.3420   29.1823    1.0990 C.3       9 UNK        -0.1959 
     57 C          31.6063   29.9867    3.4756 C.2       9 UNK         0.5033 
     58 O          30.5424   30.1835    4.0681 O.2       9 UNK        -0.5390 
     59 N          32.6738   29.3967    4.0216 N.am      10 UNK        -0.4215 
     60 CA         32.7816   28.8608    5.3779 C.3       10 UNK         0.0240 
     61 CB         32.6348   29.9743    6.4403 C.3       10 UNK        -0.1982 
     62 C          34.1367   28.1469    5.4646 C.2       10 UNK         0.4970 
     63 O          35.0753   28.6803    6.0587 O.2       10 UNK        -0.4916 
     64 N          34.2409   26.9924    4.7941 N.am      11 UNK        -0.4279 
     65 CA         35.5042   26.2529    4.6108 C.3       11 UNK         0.1003 
     66 C          36.0488   25.5435    5.8856 C.2       11 UNK         0.5709 
     67 N          35.2740   25.4085    6.9555 N.am      11 UNK        -0.7358 
     68 O          37.1996   25.1132    5.9041 O.2       11 UNK        -0.4999 
     69 C69        35.4493   25.2644    3.4135 C.3       12 UNK        -0.0954 
     70 S70        34.7331   25.9917    1.8959 S.3       12 UNK        -0.2268 
     71 C71        33.5402   24.7129    1.3798 C.3       12 UNK         0.0203 
     72 H72        33.0655   20.3845   -1.2796 H         1 UNK         0.0888 
     73 H73        31.9969   19.0416   -0.8686 H         1 UNK         0.0888 
     74 H74        31.6762   20.0157   -2.3056 H         1 UNK         0.0888 
     75 H75        30.5922   19.5379    0.8008 H         1 UNK         0.3017 
     76 H76        30.1871   22.2490    1.6940 H         1 UNK         0.0873 
     77 H77        29.0205   21.2134    3.6152 H         1 UNK         0.0745 
     78 H78        29.0112   19.6612    2.8188 H         1 UNK         0.0745 
     79 H79        32.4274   21.4288    5.2927 H         1 UNK         0.0705 
     80 H80        30.7051   21.5509    5.5540 H         1 UNK         0.0705 
     81 H81        33.2139   22.4481    2.8714 H         1 UNK         0.1334 
     82 H82        31.5280   26.3402    2.2409 H         1 UNK         0.1417 
     83 H83        29.7811   23.6893    5.1204 H         1 UNK         0.1562 
     84 H84        29.9874   27.1768    4.0393 H         1 UNK         0.0748 
     85 H85        29.1768   26.0513    5.1018 H         1 UNK         0.0748 
     86 H86        27.2391   27.5262    4.7034 H         1 UNK         0.0940 
     87 H87        26.0719   27.3288    3.4233 H         1 UNK         0.0940 
     88 H88        28.6466   28.9289    3.0721 H         1 UNK         0.0703 
     89 H89        26.8198   28.1252    1.1618 H         1 UNK         0.3081 
     90 H90        26.2447   29.5164   -0.8487 H         1 UNK         0.0719 
     91 H91        28.7422   31.1355   -1.5912 H         1 UNK         0.0809 
     92 H92        27.3913   30.7628   -2.6610 H         1 UNK         0.0809 
     93 H93        27.1507   31.8099   -1.2736 H         1 UNK         0.0809 
     94 H94        28.8840   28.7187   -1.7895 H         1 UNK         0.2990 
     95 H95        28.8111   26.2322   -2.5597 H         1 UNK         0.0690 
     96 H96        30.8602   25.6685   -1.1670 H         1 UNK         0.0788 
     97 H97        30.1356   26.5079    0.2009 H         1 UNK         0.0788 
     98 H98        30.5756   27.3936   -1.2560 H         1 UNK         0.0788 
     99 H99        28.7214   24.5260   -0.1757 H         1 UNK         0.2993 
    100 H100       26.3211   22.8890   -0.3364 H         1 UNK         0.0949 
    101 H101       27.5157   21.4503   -2.7734 H         1 UNK         0.0767 
    102 H102       26.5053   20.6919   -1.5432 H         1 UNK         0.0767 
    103 H103       25.8348   21.9367   -2.5826 H         1 UNK         0.0767 
    104 H104       29.2280   22.3983   -0.6953 H         1 UNK         0.3013 
    105 H105       28.8017   30.4191    4.5420 H         1 UNK         0.3121 
    106 H106       28.4976   32.0238    5.9932 H         1 UNK         0.0774 
    107 H107       26.3573   32.5356    7.0950 H         1 UNK         0.0815 
    108 H108       25.4624   31.6084    5.9051 H         1 UNK         0.0815 
    109 H109       26.5736   30.7949    7.0075 H         1 UNK         0.0815 
    110 H110       26.5031   32.1923    3.1028 H         1 UNK         0.2987 
    111 H111       26.2970   35.0551    2.9279 H         1 UNK         0.0949 
    112 H112       25.7039   34.5716    0.5400 H         1 UNK         0.0806 
    113 H113       26.1816   32.8928    0.7520 H         1 UNK         0.0806 
    114 H114       24.8069   33.5414    1.6441 H         1 UNK         0.0806 
    115 H115       28.7131   32.6943    1.7842 H         1 UNK         0.3010 
    116 H116       30.7342   34.8224    1.6315 H         1 UNK         0.0829 
    117 H117       29.8424   34.8443   -0.6832 H         1 UNK         0.0813 
    118 H118       31.4534   34.1458   -0.6769 H         1 UNK         0.0813 
    119 H119       30.0464   33.0986   -0.8125 H         1 UNK         0.0813 
    120 H120       29.9576   31.3175    1.3681 H         1 UNK         0.3038 
    121 H121       32.7900   30.6039    1.7860 H         1 UNK         0.0769 
    122 H122       30.3505   28.8023    1.3448 H         1 UNK         0.0811 
    123 H123       32.0470   28.3578    1.2062 H         1 UNK         0.0811 
    124 H124       31.3408   29.4653    0.0463 H         1 UNK         0.0811 
    125 H125       33.5009   29.2725    3.4520 H         1 UNK         0.3204 
    126 H126       31.9941   28.1204    5.5320 H         1 UNK         0.0748 
    127 H127       32.8232   29.5853    7.4418 H         1 UNK         0.0771 
    128 H128       33.3370   30.7909    6.2682 H         1 UNK         0.0771 
    129 H129       31.6298   30.3957    6.4490 H         1 UNK         0.0771 
    130 H130       33.4356   26.6078    4.3228 H         1 UNK         0.2980 
    131 H131       36.2588   26.9995    4.3555 H         1 UNK         0.0545 
    132 H132       35.6401   24.9515    7.7756 H         1 UNK         0.3459 
    133 H133       34.3298   25.7580    6.9499 H         1 UNK         0.3459 
    134 H134       34.8937   24.3700    3.6939 H         1 UNK         0.0616 
    135 H135       36.4551   24.9195    3.1674 H         1 UNK         0.0616 
    136 H136       34.0860   23.8038    1.1223 H         1 UNK         0.0634 
    137 H137       33.0449   25.0407    0.4647 H         1 UNK         0.0634 
@<TRIPOS>BOND
     1    1    2 1    
     2    1   72 1    
     3    1   73 1    
     4    1   74 1    
     5    2    3 2    
     6    2    4 am   BACKBONE|DICT|INTERRES
     7    4    5 1    
     8    4   75 1    
     9    5    6 1    
    10    5   35 1    
    11    5   76 1    
    12    6    7 1    
    13    6   77 1    
    14    6   78 1    
    15    7    8 1    
    16    8    9 1    
    17    8   79 1    
    18    8   80 1    
    19    9   10 ar   
    20    9   14 ar   
    21   10   11 ar   
    22   10   81 1    
    23   11   12 ar   
    24   11   71 1    
    25   12   13 ar   
    26   12   82 1    
    27   13   14 ar   
    28   13   15 1    
    29   14   83 1    
    30   15   16 1    
    31   15   84 1    
    32   15   85 1    
    33   16   17 1    
    34   17   18 1    
    35   17   86 1    
    36   17   87 1    
    37   18   19 1    
    38   18   37 1    
    39   18   88 1    
    40   19   20 am   BACKBONE|DICT|INTERRES
    41   19   89 1    
    42   20   21 2    
    43   20   22 1    
    44   22   23 1    
    45   22   24 1    
    46   22   90 1    
    47   23   91 1    
    48   23   92 1    
    49   23   93 1    
    50   24   25 am   BACKBONE|DICT|INTERRES
    51   24   94 1    
    52   25   26 2    
    53   25   27 1    
    54   27   28 1    
    55   27   29 1    
    56   27   95 1    
    57   28   96 1    
    58   28   97 1    
    59   28   98 1    
    60   29   30 am   BACKBONE|DICT|INTERRES
    61   29   99 1    
    62   30   31 2    
    63   30   32 1    
    64   32   33 1    
    65   32   34 1    
    66   32  100 1    
    67   33  101 1    
    68   33  102 1    
    69   33  103 1    
    70   34   35 am   BACKBONE|DICT|INTERRES
    71   34  104 1    
    72   35   36 2    
    73   37   38 2    
    74   37   39 am   BACKBONE|DICT|INTERRES
    75   39   40 1    
    76   39  105 1    
    77   40   41 1    
    78   40   42 1    
    79   40  106 1    
    80   41  107 1    
    81   41  108 1    
    82   41  109 1    
    83   42   43 2    
    84   42   44 am   BACKBONE|DICT|INTERRES
    85   44   45 1    
    86   44  110 1    
    87   45   46 1    
    88   45   47 1    
    89   45  111 1    
    90   46  112 1    
    91   46  113 1    
    92   46  114 1    
    93   47   48 2    
    94   47   49 am   BACKBONE|DICT|INTERRES
    95   49   50 1    
    96   49  115 1    
    97   50   51 1    
    98   50   52 1    
    99   50  116 1    
   100   51  117 1    
   101   51  118 1    
   102   51  119 1    
   103   52   53 2    
   104   52   54 am   BACKBONE|DICT|INTERRES
   105   54   55 1    
   106   54  120 1    
   107   55   56 1    
   108   55   57 1    
   109   55  121 1    
   110   56  122 1    
   111   56  123 1    
   112   56  124 1    
   113   57   58 2    
   114   57   59 am   BACKBONE|DICT|INTERRES
   115   59   60 1    
   116   59  125 1    
   117   60   61 1    
   118   60   62 1    
   119   60  126 1    
   120   61  127 1    
   121   61  128 1    
   122   61  129 1    
   123   62   63 2    
   124   62   64 am   BACKBONE|DICT|INTERRES
   125   64   65 1    
   126   64  130 1    
   127   65   66 1    
   128   65   69 1    
   129   65  131 1    
   130   66   67 am   BACKBONE|DICT|INTERRES
   131   66   68 2    
   132   67  132 1    
   133   67  133 1    
   134   69   70 1    
   135   69  134 1    
   136   69  135 1    
   137   70   71 1    
   138   71  136 1    
   139   71  137 1    
@<TRIPOS>SUBSTRUCTURE
     1 UNK         1 GROUP             0       ****    0 ROOT    
