@<TRIPOS>MOLECULE
3R136
137   139    1
SMALL
USER_CHARGES


@<TRIPOS>ATOM
      1 CA         27.8934   21.0204    3.4634 C.3       0 UNK        -0.1979 
      2 C          28.3825   20.9547    2.0246 C.2       0 UNK         0.4864 
      3 O          29.2393   20.1285    1.7074 O.2       0 UNK        -0.5359 
      4 N          27.8351   21.8057    1.1517 N.am      1 UNK        -0.4318 
      5 CA         28.0917   21.8268   -0.2866 C.3       1 UNK         0.0824 
      6 C6         29.4386   22.5119   -0.6575 C.3       12 UNK        -0.0944 
      7 S7         29.4656   24.3340   -0.5006 S.3       12 UNK        -0.2672 
      8 C8         31.2392   24.6317   -0.1770 C.3       12 UNK         0.0333 
      9 C9         31.6317   24.7099    1.2994 C.ar      12 UNK        -0.0807 
     10 C10        32.8590   25.2917    1.6327 C.ar      12 UNK        -0.0894 
     11 C11        33.2467   25.4312    2.9684 C.ar      12 UNK        -0.0804 
     12 C12        32.3876   25.0049    3.9837 C.ar      12 UNK        -0.0824 
     13 C13        31.1600   24.4158    3.6705 C.ar      12 UNK        -0.0762 
     14 C14        30.8064   24.2396    2.3287 C.ar      12 UNK        -0.0782 
     15 C15        30.2199   23.9762    4.7862 C.3       12 UNK         0.0230 
     16 S16        28.4939   24.5016    4.5109 S.3       12 UNK        -0.2608 
     17 C17        28.6322   26.3239    4.5272 C.3       12 UNK        -0.0989 
     18 CA         28.6283   26.9728    3.1120 C.3       5 UNK         0.0716 
     19 N          27.5507   26.5012    2.2250 N.am      5 UNK        -0.4135 
     20 C          26.2261   26.5576    2.4284 C.2       4 UNK         0.5031 
     21 O          25.7123   27.0775    3.4215 O.2       4 UNK        -0.5229 
     22 CA         25.3208   25.9295    1.3504 C.3       4 UNK         0.0329 
     23 CB         23.9092   26.5541    1.3279 C.3       4 UNK        -0.2001 
     24 N          25.8954   25.9105   -0.0013 N.am      4 UNK        -0.4303 
     25 C          26.2435   26.9630   -0.7612 C.2       3 UNK         0.5044 
     26 O          26.2151   28.1276   -0.3621 O.2       3 UNK        -0.5152 
     27 CA         26.7087   26.6830   -2.2073 C.3       3 UNK         0.0319 
     28 CB         28.1082   27.2642   -2.4687 C.3       3 UNK        -0.2001 
     29 N          26.7161   25.2568   -2.5466 N.am      3 UNK        -0.4354 
     30 C          25.6530   24.5660   -2.9846 C.2       2 UNK         0.4964 
     31 O          24.5571   25.0752   -3.2200 O.2       2 UNK        -0.5047 
     32 CA         25.8273   23.0446   -3.1681 C.3       2 UNK         0.0288 
     33 CB         26.1173   22.7126   -4.6411 C.3       2 UNK        -0.2113 
     34 N          26.8711   22.4466   -2.3248 N.am      2 UNK        -0.4145 
     35 C          26.8684   22.4494   -0.9839 C.2       1 UNK         0.5006 
     36 O          25.9713   22.9616   -0.3059 O.2       1 UNK        -0.5103 
     37 C          28.6984   28.5110    3.2274 C.2       5 UNK         0.5055 
     38 O          29.7746   29.0863    3.0549 O.2       5 UNK        -0.5220 
     39 N          27.5555   29.1494    3.5105 N.am      6 UNK        -0.4450 
     40 CA         27.3736   30.5788    3.7824 C.3       6 UNK         0.0367 
     41 CB         25.9086   30.8238    4.1773 C.3       6 UNK        -0.1929 
     42 C          27.7852   31.5260    2.6415 C.2       6 UNK         0.5070 
     43 O          28.0135   32.7069    2.9021 O.2       6 UNK        -0.5237 
     44 N          27.8947   31.0083    1.4102 N.am      7 UNK        -0.4739 
     45 CA         28.4493   31.7274    0.2598 C.3       7 UNK         0.0276 
     46 CB         28.2150   30.8985   -1.0104 C.3       7 UNK        -0.1927 
     47 C          29.9490   32.0468    0.4134 C.2       7 UNK         0.5013 
     48 O          30.4068   33.0484   -0.1383 O.2       7 UNK        -0.5193 
     49 N          30.6753   31.1983    1.1540 N.am      8 UNK        -0.4253 
     50 CA         32.0848   31.3795    1.4971 C.3       8 UNK         0.0242 
     51 CB         32.8441   30.0710    1.2323 C.3       8 UNK        -0.2000 
     52 C          32.2266   31.8211    2.9607 C.2       8 UNK         0.4948 
     53 O          32.9442   32.7856    3.2286 O.2       8 UNK        -0.5275 
     54 N          31.5250   31.1274    3.8715 N.am      9 UNK        -0.4246 
     55 CA         31.3579   31.3693    5.3131 C.3       9 UNK         0.0261 
     56 CB         30.6099   32.6926    5.5662 C.3       9 UNK        -0.1959 
     57 C          32.6360   31.3037    6.1711 C.2       9 UNK         0.5033 
     58 O          32.6245   30.6481    7.2132 O.2       9 UNK        -0.5390 
     59 N          33.6943   32.0050    5.7520 N.am      10 UNK        -0.4215 
     60 CA         34.9501   32.1722    6.4888 C.3       10 UNK         0.0240 
     61 CB         35.6673   33.4265    5.9619 C.3       10 UNK        -0.1982 
     62 C          35.8861   30.9527    6.4219 C.2       10 UNK         0.4970 
     63 O          36.7977   30.8564    7.2452 O.2       10 UNK        -0.4916 
     64 N          35.6758   30.0698    5.4392 N.am      11 UNK        -0.4279 
     65 CA         36.4553   28.8443    5.2226 C.3       11 UNK         0.1003 
     66 C          36.2738   27.7708    6.3348 C.2       11 UNK         0.5709 
     67 N          37.2100   26.8377    6.4474 N.am      11 UNK        -0.7358 
     68 O          35.2914   27.7546    7.0744 O.2       11 UNK        -0.4999 
     69 C69        36.2132   28.2776    3.7995 C.3       12 UNK        -0.0954 
     70 S70        34.4719   27.8482    3.4601 S.3       12 UNK        -0.2268 
     71 C71        34.5935   26.0432    3.3138 C.3       12 UNK         0.0203 
     72 H72        27.1925   21.8405    3.6181 H         1 UNK         0.0888 
     73 H73        27.3918   20.0909    3.7311 H         1 UNK         0.0888 
     74 H74        28.7342   21.1596    4.1412 H         1 UNK         0.0888 
     75 H75        27.0877   22.4287    1.4325 H         1 UNK         0.3017 
     76 H76        28.1344   20.7891   -0.6253 H         1 UNK         0.0873 
     77 H77        30.2402   22.0911   -0.0483 H         1 UNK         0.0745 
     78 H78        29.7057   22.2682   -1.6869 H         1 UNK         0.0745 
     79 H79        31.8394   23.8665   -0.6711 H         1 UNK         0.0705 
     80 H80        31.4980   25.5774   -0.6557 H         1 UNK         0.0705 
     81 H81        33.5148   25.6471    0.8492 H         1 UNK         0.1334 
     82 H82        32.6778   25.1342    5.0177 H         1 UNK         0.1417 
     83 H83        29.8614   23.7694    2.0999 H         1 UNK         0.1562 
     84 H84        30.5521   24.3628    5.7510 H         1 UNK         0.0748 
     85 H85        30.2534   22.8893    4.8628 H         1 UNK         0.0748 
     86 H86        29.5376   26.6062    5.0682 H         1 UNK         0.0940 
     87 H87        27.8012   26.7031    5.1249 H         1 UNK         0.0940 
     88 H88        29.5517   26.6758    2.6146 H         1 UNK         0.0703 
     89 H89        27.8642   26.0741    1.3654 H         1 UNK         0.3081 
     90 H90        25.2081   24.8834    1.6385 H         1 UNK         0.0719 
     91 H91        23.9437   27.6222    1.1105 H         1 UNK         0.0809 
     92 H92        23.2774   26.0787    0.5776 H         1 UNK         0.0809 
     93 H93        23.4102   26.4345    2.2904 H         1 UNK         0.0809 
     94 H94        25.9732   24.9839   -0.4078 H         1 UNK         0.2990 
     95 H95        26.0099   27.1958   -2.8716 H         1 UNK         0.0690 
     96 H96        28.4894   26.9678   -3.4461 H         1 UNK         0.0788 
     97 H97        28.8312   26.9515   -1.7153 H         1 UNK         0.0788 
     98 H98        28.0758   28.3525   -2.4606 H         1 UNK         0.0788 
     99 H99        27.5781   24.7583   -2.3725 H         1 UNK         0.2993 
    100 H100       24.8778   22.5801   -2.8927 H         1 UNK         0.0949 
    101 H101       25.3430   23.1198   -5.2932 H         1 UNK         0.0767 
    102 H102       27.0710   23.1285   -4.9688 H         1 UNK         0.0767 
    103 H103       26.1438   21.6355   -4.8082 H         1 UNK         0.0767 
    104 H104       27.6454   22.0149   -2.8090 H         1 UNK         0.3013 
    105 H105       26.7271   28.5616    3.5979 H         1 UNK         0.3121 
    106 H106       28.0041   30.8235    4.6393 H         1 UNK         0.0774 
    107 H107       25.2256   30.5596    3.3689 H         1 UNK         0.0815 
    108 H108       25.7374   31.8735    4.4205 H         1 UNK         0.0815 
    109 H109       25.6306   30.2404    5.0554 H         1 UNK         0.0815 
    110 H110       27.6473   30.0382    1.2710 H         1 UNK         0.2987 
    111 H111       27.9156   32.6752    0.1609 H         1 UNK         0.0949 
    112 H112       28.7393   29.9444   -0.9575 H         1 UNK         0.0806 
    113 H113       27.1553   30.6942   -1.1656 H         1 UNK         0.0806 
    114 H114       28.5781   31.4240   -1.8947 H         1 UNK         0.0806 
    115 H115       30.1981   30.4237    1.6032 H         1 UNK         0.3010 
    116 H116       32.5317   32.1568    0.8735 H         1 UNK         0.0829 
    117 H117       32.8191   29.8090    0.1746 H         1 UNK         0.0813 
    118 H118       33.8928   30.1628    1.5179 H         1 UNK         0.0813 
    119 H119       32.4196   29.2351    1.7898 H         1 UNK         0.0813 
    120 H120       30.9922   30.3280    3.5307 H         1 UNK         0.3038 
    121 H121       30.7124   30.5615    5.6625 H         1 UNK         0.0769 
    122 H122       31.1767   33.5556    5.2155 H         1 UNK         0.0811 
    123 H123       30.4229   32.8383    6.6309 H         1 UNK         0.0811 
    124 H124       29.6431   32.7051    5.0652 H         1 UNK         0.0811 
    125 H125       33.5993   32.4901    4.8591 H         1 UNK         0.3204 
    126 H126       34.7093   32.3358    7.5414 H         1 UNK         0.0748 
    127 H127       36.5961   33.6056    6.5055 H         1 UNK         0.0771 
    128 H128       35.9197   33.3320    4.9049 H         1 UNK         0.0771 
    129 H129       35.0482   34.3161    6.0804 H         1 UNK         0.0771 
    130 H130       34.8813   30.2000    4.8321 H         1 UNK         0.2980 
    131 H131       37.5041   29.1448    5.2664 H         1 UNK         0.0545 
    132 H132       37.1087   26.1274    7.1553 H         1 UNK         0.3459 
    133 H133       38.0196   26.8333    5.8468 H         1 UNK         0.3459 
    134 H134       36.5158   29.0196    3.0591 H         1 UNK         0.0616 
    135 H135       36.8540   27.4132    3.6174 H         1 UNK         0.0616 
    136 H136       35.3249   25.7895    2.5449 H         1 UNK         0.0634 
    137 H137       34.9694   25.6285    4.2505 H         1 UNK         0.0634 
@<TRIPOS>BOND
     1    1    2 1    
     2    1   72 1    
     3    1   73 1    
     4    1   74 1    
     5    2    3 2    
     6    2    4 am   BACKBONE|DICT|INTERRES
     7    4    5 1    
     8    4   75 1    
     9    5    6 1    
    10    5   35 1    
    11    5   76 1    
    12    6    7 1    
    13    6   77 1    
    14    6   78 1    
    15    7    8 1    
    16    8    9 1    
    17    8   79 1    
    18    8   80 1    
    19    9   10 ar   
    20    9   14 ar   
    21   10   11 ar   
    22   10   81 1    
    23   11   12 ar   
    24   11   71 1    
    25   12   13 ar   
    26   12   82 1    
    27   13   14 ar   
    28   13   15 1    
    29   14   83 1    
    30   15   16 1    
    31   15   84 1    
    32   15   85 1    
    33   16   17 1    
    34   17   18 1    
    35   17   86 1    
    36   17   87 1    
    37   18   19 1    
    38   18   37 1    
    39   18   88 1    
    40   19   20 am   BACKBONE|DICT|INTERRES
    41   19   89 1    
    42   20   21 2    
    43   20   22 1    
    44   22   23 1    
    45   22   24 1    
    46   22   90 1    
    47   23   91 1    
    48   23   92 1    
    49   23   93 1    
    50   24   25 am   BACKBONE|DICT|INTERRES
    51   24   94 1    
    52   25   26 2    
    53   25   27 1    
    54   27   28 1    
    55   27   29 1    
    56   27   95 1    
    57   28   96 1    
    58   28   97 1    
    59   28   98 1    
    60   29   30 am   BACKBONE|DICT|INTERRES
    61   29   99 1    
    62   30   31 2    
    63   30   32 1    
    64   32   33 1    
    65   32   34 1    
    66   32  100 1    
    67   33  101 1    
    68   33  102 1    
    69   33  103 1    
    70   34   35 am   BACKBONE|DICT|INTERRES
    71   34  104 1    
    72   35   36 2    
    73   37   38 2    
    74   37   39 am   BACKBONE|DICT|INTERRES
    75   39   40 1    
    76   39  105 1    
    77   40   41 1    
    78   40   42 1    
    79   40  106 1    
    80   41  107 1    
    81   41  108 1    
    82   41  109 1    
    83   42   43 2    
    84   42   44 am   BACKBONE|DICT|INTERRES
    85   44   45 1    
    86   44  110 1    
    87   45   46 1    
    88   45   47 1    
    89   45  111 1    
    90   46  112 1    
    91   46  113 1    
    92   46  114 1    
    93   47   48 2    
    94   47   49 am   BACKBONE|DICT|INTERRES
    95   49   50 1    
    96   49  115 1    
    97   50   51 1    
    98   50   52 1    
    99   50  116 1    
   100   51  117 1    
   101   51  118 1    
   102   51  119 1    
   103   52   53 2    
   104   52   54 am   BACKBONE|DICT|INTERRES
   105   54   55 1    
   106   54  120 1    
   107   55   56 1    
   108   55   57 1    
   109   55  121 1    
   110   56  122 1    
   111   56  123 1    
   112   56  124 1    
   113   57   58 2    
   114   57   59 am   BACKBONE|DICT|INTERRES
   115   59   60 1    
   116   59  125 1    
   117   60   61 1    
   118   60   62 1    
   119   60  126 1    
   120   61  127 1    
   121   61  128 1    
   122   61  129 1    
   123   62   63 2    
   124   62   64 am   BACKBONE|DICT|INTERRES
   125   64   65 1    
   126   64  130 1    
   127   65   66 1    
   128   65   69 1    
   129   65  131 1    
   130   66   67 am   BACKBONE|DICT|INTERRES
   131   66   68 2    
   132   67  132 1    
   133   67  133 1    
   134   69   70 1    
   135   69  134 1    
   136   69  135 1    
   137   70   71 1    
   138   71  136 1    
   139   71  137 1    
@<TRIPOS>SUBSTRUCTURE
     1 UNK         1 GROUP             0       ****    0 ROOT    
