@<TRIPOS>MOLECULE
3R136
137   139    1
SMALL
USER_CHARGES


@<TRIPOS>ATOM
      1 CA         28.3816   17.3810    2.3562 C.3       0 UNK        -0.1979 
      2 C          29.0405   18.4494    1.4959 C.2       0 UNK         0.4864 
      3 O          30.2329   18.3496    1.2033 O.2       0 UNK        -0.5359 
      4 N          28.2746   19.4663    1.0886 N.am      1 UNK        -0.4318 
      5 CA         28.7011   20.5667    0.2267 C.3       1 UNK         0.0824 
      6 C6         29.5446   21.6293    0.9860 C.3       12 UNK        -0.0944 
      7 S7         30.6698   22.5548   -0.1182 S.3       12 UNK        -0.2672 
      8 C8         32.0843   22.8862    0.9795 C.3       12 UNK         0.0333 
      9 C9         31.7858   24.0134    1.9578 C.ar      12 UNK        -0.0807 
     10 C10        32.1908   25.3212    1.6727 C.ar      12 UNK        -0.0894 
     11 C11        31.9308   26.3566    2.5755 C.ar      12 UNK        -0.0804 
     12 C12        31.2725   26.0722    3.7746 C.ar      12 UNK        -0.0824 
     13 C13        30.8126   24.7804    4.0475 C.ar      12 UNK        -0.0762 
     14 C14        31.0973   23.7515    3.1458 C.ar      12 UNK        -0.0782 
     15 C15        29.9932   24.4801    5.3002 C.3       12 UNK         0.0230 
     16 S16        28.6591   25.6873    5.6330 S.3       12 UNK        -0.2608 
     17 C17        27.7760   25.8222    4.0344 C.3       12 UNK        -0.0989 
     18 CA         28.0368   27.1914    3.3457 C.3       5 UNK         0.0716 
     19 N          28.1240   27.0740    1.8849 N.am      5 UNK        -0.4135 
     20 C          28.6783   27.9906    1.0758 C.2       4 UNK         0.5031 
     21 O          29.2034   29.0267    1.4824 O.2       4 UNK        -0.5229 
     22 CA         28.5741   27.7564   -0.4429 C.3       4 UNK         0.0329 
     23 CB         29.8321   27.0364   -0.9552 C.3       4 UNK        -0.2001 
     24 N          27.3867   27.0065   -0.8686 N.am      4 UNK        -0.4303 
     25 C          26.1096   27.2807   -0.5601 C.2       3 UNK         0.5044 
     26 O          25.7737   28.2442    0.1280 O.2       3 UNK        -0.5152 
     27 CA         25.0178   26.3158   -1.0705 C.3       3 UNK         0.0319 
     28 CB         24.0827   27.0371   -2.0557 C.3       3 UNK        -0.2001 
     29 N          25.5092   25.0830   -1.7011 N.am      3 UNK        -0.4354 
     30 C          26.2290   24.1229   -1.1032 C.2       2 UNK         0.4964 
     31 O          26.5808   24.1802    0.0781 O.2       2 UNK        -0.5047 
     32 CA         26.6519   22.9377   -1.9964 C.3       2 UNK         0.0288 
     33 CB         27.2062   23.4054   -3.3576 C.3       2 UNK        -0.2113 
     34 N          27.6750   22.1207   -1.3465 N.am      2 UNK        -0.4145 
     35 C          27.4481   21.1731   -0.4313 C.2       1 UNK         0.5006 
     36 O          26.3219   20.7855   -0.1003 O.2       1 UNK        -0.5103 
     37 C          27.0944   28.3190    3.8387 C.2       5 UNK         0.5055 
     38 O          27.0990   28.6227    5.0317 O.2       5 UNK        -0.5220 
     39 N          26.3558   28.9849    2.9350 N.am      6 UNK        -0.4450 
     40 CA         25.7033   30.2711    3.2084 C.3       6 UNK         0.0367 
     41 CB         24.7670   30.6315    2.0446 C.3       6 UNK        -0.1929 
     42 C          26.7104   31.4144    3.4609 C.2       6 UNK         0.5070 
     43 O          26.3535   32.3905    4.1206 O.2       6 UNK        -0.5237 
     44 N          27.9450   31.2695    2.9588 N.am      7 UNK        -0.4739 
     45 CA         29.0755   32.1670    3.1865 C.3       7 UNK         0.0276 
     46 CB         29.4956   32.7930    1.8430 C.3       7 UNK        -0.1927 
     47 C          30.2157   31.3771    3.8507 C.2       7 UNK         0.5013 
     48 O          31.3472   31.4038    3.3633 O.2       7 UNK        -0.5193 
     49 N          29.8901   30.6618    4.9387 N.am      8 UNK        -0.4253 
     50 CA         30.8054   29.8111    5.7076 C.3       8 UNK         0.0242 
     51 CB         30.0497   29.1826    6.8890 C.3       8 UNK        -0.2000 
     52 C          32.0591   30.5432    6.2141 C.2       8 UNK         0.4948 
     53 O          32.0058   31.7449    6.4876 O.2       8 UNK        -0.5275 
     54 N          33.1680   29.7972    6.3144 N.am      9 UNK        -0.4246 
     55 CA         34.5291   30.2174    6.6827 C.3       9 UNK         0.0261 
     56 CB         34.5806   30.8417    8.0915 C.3       9 UNK        -0.1959 
     57 C          35.2143   31.1227    5.6417 C.2       9 UNK         0.5033 
     58 O          36.4020   30.9302    5.3778 O.2       9 UNK        -0.5390 
     59 N          34.4700   32.0716    5.0599 N.am      10 UNK        -0.4215 
     60 CA         34.9008   32.9111    3.9430 C.3       10 UNK         0.0240 
     61 CB         33.9331   34.0962    3.7805 C.3       10 UNK        -0.1982 
     62 C          35.0122   32.0960    2.6449 C.2       10 UNK         0.4970 
     63 O          36.0788   32.0821    2.0295 O.2       10 UNK        -0.4916 
     64 N          33.9122   31.4265    2.2733 N.am      11 UNK        -0.4279 
     65 CA         33.7734   30.5355    1.1107 C.3       11 UNK         0.1003 
     66 C          34.0200   31.2081   -0.2750 C.2       11 UNK         0.5709 
     67 N          33.8822   32.5231   -0.3990 N.am      11 UNK        -0.7358 
     68 O          34.3050   30.5332   -1.2617 O.2       11 UNK        -0.4999 
     69 C69        34.5368   29.1901    1.2953 C.3       12 UNK        -0.0954 
     70 S70        33.9792   28.2325    2.7489 S.3       12 UNK        -0.2268 
     71 C71        32.2966   27.7888    2.2204 C.3       12 UNK         0.0203 
     72 H72        27.3290   17.5970    2.5388 H         1 UNK         0.0888 
     73 H73        28.4485   16.4102    1.8659 H         1 UNK         0.0888 
     74 H74        28.8853   17.3122    3.3200 H         1 UNK         0.0888 
     75 H75        27.2831   19.4861    1.2987 H         1 UNK         0.3017 
     76 H76        29.3020   20.1322   -0.5757 H         1 UNK         0.0873 
     77 H77        28.9110   22.3315    1.5322 H         1 UNK         0.0745 
     78 H78        30.1578   21.1339    1.7392 H         1 UNK         0.0745 
     79 H79        32.3637   21.9786    1.5168 H         1 UNK         0.0705 
     80 H80        32.9465   23.1477    0.3641 H         1 UNK         0.0705 
     81 H81        32.7000   25.5362    0.7431 H         1 UNK         0.1334 
     82 H82        31.0696   26.8643    4.4782 H         1 UNK         0.1417 
     83 H83        30.7690   22.7448    3.3624 H         1 UNK         0.1562 
     84 H84        30.6637   24.4529    6.1599 H         1 UNK         0.0748 
     85 H85        29.5406   23.4896    5.2321 H         1 UNK         0.0748 
     86 H86        26.7095   25.6564    4.1979 H         1 UNK         0.0940 
     87 H87        28.1019   24.9999    3.3952 H         1 UNK         0.0940 
     88 H88        29.0242   27.5344    3.6539 H         1 UNK         0.0703 
     89 H89        27.6982   26.2586    1.4659 H         1 UNK         0.3081 
     90 H90        28.5203   28.7378   -0.9183 H         1 UNK         0.0719 
     91 H91        29.9431   26.0472   -0.5075 H         1 UNK         0.0809 
     92 H92        29.8102   26.9155   -2.0383 H         1 UNK         0.0809 
     93 H93        30.7308   27.6059   -0.7163 H         1 UNK         0.0809 
     94 H94        27.5563   26.1856   -1.4298 H         1 UNK         0.2990 
     95 H95        24.4302   26.0229   -0.1980 H         1 UNK         0.0690 
     96 H96        23.2462   26.4021   -2.3483 H         1 UNK         0.0788 
     97 H97        24.6088   27.3413   -2.9615 H         1 UNK         0.0788 
     98 H98        23.6590   27.9374   -1.6078 H         1 UNK         0.0788 
     99 H99        25.2764   24.9635   -2.6767 H         1 UNK         0.2993 
    100 H100       25.7653   22.3241   -2.1717 H         1 UNK         0.0949 
    101 H101       27.5630   22.5605   -3.9475 H         1 UNK         0.0767 
    102 H102       26.4430   23.9024   -3.9572 H         1 UNK         0.0767 
    103 H103       28.0388   24.1004   -3.2389 H         1 UNK         0.0767 
    104 H104       28.6347   22.4065   -1.4895 H         1 UNK         0.3013 
    105 H105       26.3458   28.6744    1.9671 H         1 UNK         0.3121 
    106 H106       25.0984   30.1591    4.1107 H         1 UNK         0.0774 
    107 H107       25.3184   30.7769    1.1147 H         1 UNK         0.0815 
    108 H108       24.2264   31.5562    2.2508 H         1 UNK         0.0815 
    109 H109       24.0242   29.8519    1.8752 H         1 UNK         0.0815 
    110 H110       28.1738   30.4216    2.4458 H         1 UNK         0.2987 
    111 H111       28.8038   32.9719    3.8727 H         1 UNK         0.0949 
    112 H112       29.8131   32.0320    1.1285 H         1 UNK         0.0806 
    113 H113       28.6757   33.3535    1.3940 H         1 UNK         0.0806 
    114 H114       30.3278   33.4855    1.9762 H         1 UNK         0.0806 
    115 H115       28.9323   30.6928    5.2577 H         1 UNK         0.3010 
    116 H116       31.1305   29.0188    5.0344 H         1 UNK         0.0829 
    117 H117       29.6526   29.9434    7.5622 H         1 UNK         0.0813 
    118 H118       29.2177   28.5675    6.5499 H         1 UNK         0.0813 
    119 H119       30.7024   28.5356    7.4768 H         1 UNK         0.0813 
    120 H120       33.0979   28.8262    6.0421 H         1 UNK         0.3038 
    121 H121       35.1129   29.2959    6.7180 H         1 UNK         0.0769 
    122 H122       35.6118   31.0308    8.3925 H         1 UNK         0.0811 
    123 H123       34.0529   31.7945    8.1394 H         1 UNK         0.0811 
    124 H124       34.1423   30.1774    8.8361 H         1 UNK         0.0811 
    125 H125       33.5053   32.1580    5.3710 H         1 UNK         0.3204 
    126 H126       35.8903   33.3104    4.1759 H         1 UNK         0.0748 
    127 H127       34.2293   34.7304    2.9438 H         1 UNK         0.0771 
    128 H128       32.9093   33.7673    3.5968 H         1 UNK         0.0771 
    129 H129       33.9248   34.7223    4.6730 H         1 UNK         0.0771 
    130 H130       33.0632   31.5137    2.8301 H         1 UNK         0.2980 
    131 H131       32.7103   30.2982    1.0785 H         1 UNK         0.0545 
    132 H132       34.0319   32.9526   -1.2981 H         1 UNK         0.3459 
    133 H133       33.6356   33.0874    0.3977 H         1 UNK         0.3459 
    134 H134       34.4196   28.5493    0.4197 H         1 UNK         0.0616 
    135 H135       35.6080   29.3719    1.3926 H         1 UNK         0.0616 
    136 H136       32.1946   27.9225    1.1434 H         1 UNK         0.0634 
    137 H137       31.5917   28.4864    2.6748 H         1 UNK         0.0634 
@<TRIPOS>BOND
     1    1    2 1    
     2    1   72 1    
     3    1   73 1    
     4    1   74 1    
     5    2    3 2    
     6    2    4 am   BACKBONE|DICT|INTERRES
     7    4    5 1    
     8    4   75 1    
     9    5    6 1    
    10    5   35 1    
    11    5   76 1    
    12    6    7 1    
    13    6   77 1    
    14    6   78 1    
    15    7    8 1    
    16    8    9 1    
    17    8   79 1    
    18    8   80 1    
    19    9   10 ar   
    20    9   14 ar   
    21   10   11 ar   
    22   10   81 1    
    23   11   12 ar   
    24   11   71 1    
    25   12   13 ar   
    26   12   82 1    
    27   13   14 ar   
    28   13   15 1    
    29   14   83 1    
    30   15   16 1    
    31   15   84 1    
    32   15   85 1    
    33   16   17 1    
    34   17   18 1    
    35   17   86 1    
    36   17   87 1    
    37   18   19 1    
    38   18   37 1    
    39   18   88 1    
    40   19   20 am   BACKBONE|DICT|INTERRES
    41   19   89 1    
    42   20   21 2    
    43   20   22 1    
    44   22   23 1    
    45   22   24 1    
    46   22   90 1    
    47   23   91 1    
    48   23   92 1    
    49   23   93 1    
    50   24   25 am   BACKBONE|DICT|INTERRES
    51   24   94 1    
    52   25   26 2    
    53   25   27 1    
    54   27   28 1    
    55   27   29 1    
    56   27   95 1    
    57   28   96 1    
    58   28   97 1    
    59   28   98 1    
    60   29   30 am   BACKBONE|DICT|INTERRES
    61   29   99 1    
    62   30   31 2    
    63   30   32 1    
    64   32   33 1    
    65   32   34 1    
    66   32  100 1    
    67   33  101 1    
    68   33  102 1    
    69   33  103 1    
    70   34   35 am   BACKBONE|DICT|INTERRES
    71   34  104 1    
    72   35   36 2    
    73   37   38 2    
    74   37   39 am   BACKBONE|DICT|INTERRES
    75   39   40 1    
    76   39  105 1    
    77   40   41 1    
    78   40   42 1    
    79   40  106 1    
    80   41  107 1    
    81   41  108 1    
    82   41  109 1    
    83   42   43 2    
    84   42   44 am   BACKBONE|DICT|INTERRES
    85   44   45 1    
    86   44  110 1    
    87   45   46 1    
    88   45   47 1    
    89   45  111 1    
    90   46  112 1    
    91   46  113 1    
    92   46  114 1    
    93   47   48 2    
    94   47   49 am   BACKBONE|DICT|INTERRES
    95   49   50 1    
    96   49  115 1    
    97   50   51 1    
    98   50   52 1    
    99   50  116 1    
   100   51  117 1    
   101   51  118 1    
   102   51  119 1    
   103   52   53 2    
   104   52   54 am   BACKBONE|DICT|INTERRES
   105   54   55 1    
   106   54  120 1    
   107   55   56 1    
   108   55   57 1    
   109   55  121 1    
   110   56  122 1    
   111   56  123 1    
   112   56  124 1    
   113   57   58 2    
   114   57   59 am   BACKBONE|DICT|INTERRES
   115   59   60 1    
   116   59  125 1    
   117   60   61 1    
   118   60   62 1    
   119   60  126 1    
   120   61  127 1    
   121   61  128 1    
   122   61  129 1    
   123   62   63 2    
   124   62   64 am   BACKBONE|DICT|INTERRES
   125   64   65 1    
   126   64  130 1    
   127   65   66 1    
   128   65   69 1    
   129   65  131 1    
   130   66   67 am   BACKBONE|DICT|INTERRES
   131   66   68 2    
   132   67  132 1    
   133   67  133 1    
   134   69   70 1    
   135   69  134 1    
   136   69  135 1    
   137   70   71 1    
   138   71  136 1    
   139   71  137 1    
@<TRIPOS>SUBSTRUCTURE
     1 UNK         1 GROUP             0       ****    0 ROOT    
