@<TRIPOS>MOLECULE
3R136
137   139    1
SMALL
USER_CHARGES


@<TRIPOS>ATOM
      1 CA         32.1510   24.8559   -0.5583 C.3       0 UNK        -0.1979 
      2 C          31.3596   23.6798   -0.0035 C.2       0 UNK         0.4864 
      3 O          31.8159   22.5403   -0.1095 O.2       0 UNK        -0.5359 
      4 N          30.1866   23.9598    0.5814 N.am      1 UNK        -0.4318 
      5 CA         29.1928   23.0059    1.0940 C.3       1 UNK         0.0824 
      6 C6         29.7881   21.9731    2.0971 C.3       12 UNK        -0.0944 
      7 S7         28.5627   21.3332    3.2929 S.3       12 UNK        -0.2672 
      8 C8         29.0627   22.1552    4.8371 C.3       12 UNK         0.0333 
      9 C9         28.8592   23.6605    4.7676 C.ar      12 UNK        -0.0807 
     10 C10        29.9585   24.5160    4.6604 C.ar      12 UNK        -0.0894 
     11 C11        29.7758   25.8997    4.5973 C.ar      12 UNK        -0.0804 
     12 C12        28.4841   26.4295    4.6648 C.ar      12 UNK        -0.0824 
     13 C13        27.3749   25.5812    4.7412 C.ar      12 UNK        -0.0762 
     14 C14        27.5695   24.1981    4.8035 C.ar      12 UNK        -0.0782 
     15 C15        25.9636   26.1487    4.7375 C.3       12 UNK         0.0230 
     16 S16        25.3337   26.3473    3.0378 S.3       12 UNK        -0.2608 
     17 C17        26.0184   27.9731    2.5681 C.3       12 UNK        -0.0989 
     18 CA         27.2864   27.8631    1.6842 C.3       5 UNK         0.0716 
     19 N          27.0136   27.2308    0.3947 N.am      5 UNK        -0.4135 
     20 C          27.9352   26.6500   -0.3796 C.2       4 UNK         0.5031 
     21 O          29.1167   26.5242   -0.0507 O.2       4 UNK        -0.5229 
     22 CA         27.4432   26.0795   -1.7203 C.3       4 UNK         0.0329 
     23 CB         28.6035   25.8038   -2.6947 C.3       4 UNK        -0.2001 
     24 N          26.6929   24.8415   -1.5142 N.am      4 UNK        -0.4303 
     25 C          25.4416   24.7604   -1.0390 C.2       3 UNK         0.5044 
     26 O          24.7549   25.7492   -0.7750 O.2       3 UNK        -0.5152 
     27 CA         24.8681   23.3452   -0.8408 C.3       3 UNK         0.0319 
     28 CB         23.3287   23.3318   -0.8094 C.3       3 UNK        -0.2001 
     29 N          25.3308   22.4660   -1.9181 N.am      3 UNK        -0.4354 
     30 C          26.0272   21.3227   -1.8447 C.2       2 UNK         0.4964 
     31 O          26.3441   20.7211   -2.8708 O.2       2 UNK        -0.5047 
     32 CA         26.4521   20.7440   -0.4707 C.3       2 UNK         0.0288 
     33 CB         27.0839   19.3422   -0.6004 C.3       2 UNK        -0.2113 
     34 N          27.3519   21.5842    0.3359 N.am      2 UNK        -0.4145 
     35 C          28.3916   22.3385   -0.0513 C.2       1 UNK         0.5006 
     36 O          28.6877   22.5476   -1.2304 O.2       1 UNK        -0.5103 
     37 C          27.9556   29.2340    1.4669 C.2       5 UNK         0.5055 
     38 O          27.2792   30.2646    1.5040 O.2       5 UNK        -0.5220 
     39 N          29.2710   29.2214    1.2214 N.am      6 UNK        -0.4450 
     40 CA         30.1119   30.4047    1.0466 C.3       6 UNK         0.0367 
     41 CB         31.3883   30.0055    0.2882 C.3       6 UNK        -0.1929 
     42 C          30.4088   31.0736    2.4004 C.2       6 UNK         0.5070 
     43 O          31.5041   30.9195    2.9470 O.2       6 UNK        -0.5237 
     44 N          29.4014   31.7838    2.9234 N.am      7 UNK        -0.4739 
     45 CA         29.4473   32.5833    4.1500 C.3       7 UNK         0.0276 
     46 CB         28.0372   33.1240    4.4371 C.3       7 UNK        -0.1927 
     47 C          30.4629   33.7377    4.0686 C.2       7 UNK         0.5013 
     48 O          30.8404   34.1545    2.9705 O.2       7 UNK        -0.5193 
     49 N          30.9106   34.2126    5.2402 N.am      8 UNK        -0.4253 
     50 CA         31.9709   35.2087    5.4811 C.3       8 UNK         0.0242 
     51 CB         31.6752   36.5602    4.8003 C.3       8 UNK        -0.2000 
     52 C          33.3810   34.6944    5.1349 C.2       8 UNK         0.4948 
     53 O          34.2964   34.8581    5.9417 O.2       8 UNK        -0.5275 
     54 N          33.5195   34.0295    3.9806 N.am      9 UNK        -0.4246 
     55 CA         34.6901   33.2374    3.5944 C.3       9 UNK         0.0261 
     56 CB         34.6178   32.9422    2.0871 C.3       9 UNK        -0.1959 
     57 C          34.8051   31.9206    4.3871 C.2       9 UNK         0.5033 
     58 O          35.8939   31.3464    4.4402 O.2       9 UNK        -0.5390 
     59 N          33.6799   31.4537    4.9540 N.am      10 UNK        -0.4215 
     60 CA         33.5005   30.2184    5.7283 C.3       10 UNK         0.0240 
     61 CB         34.2102   30.3305    7.0940 C.3       10 UNK        -0.1982 
     62 C          33.9054   28.9565    4.9420 C.2       10 UNK         0.4970 
     63 O          34.4425   28.0134    5.5257 O.2       10 UNK        -0.4916 
     64 N          33.6579   28.9843    3.6255 N.am      11 UNK        -0.4279 
     65 CA         34.0717   27.9716    2.6408 C.3       11 UNK         0.1003 
     66 C          35.6152   27.7852    2.4998 C.2       11 UNK         0.5709 
     67 N          36.4456   28.7135    2.9640 N.am      11 UNK        -0.7358 
     68 O          36.0739   26.8011    1.9240 O.2       11 UNK        -0.4999 
     69 C69        33.3025   26.6294    2.8017 C.3       12 UNK        -0.0954 
     70 S70        31.4927   26.8403    2.6763 S.3       12 UNK        -0.2268 
     71 C71        30.9778   26.8109    4.4218 C.3       12 UNK         0.0203 
     72 H72        31.7194   25.8127   -0.2649 H         1 UNK         0.0888 
     73 H73        33.1780   24.8243   -0.1961 H         1 UNK         0.0888 
     74 H74        32.1705   24.8126   -1.6468 H         1 UNK         0.0888 
     75 H75        29.8705   24.9277    0.5565 H         1 UNK         0.3017 
     76 H76        28.4837   23.6332    1.6374 H         1 UNK         0.0873 
     77 H77        30.2335   21.1273    1.5698 H         1 UNK         0.0745 
     78 H78        30.6071   22.4268    2.6568 H         1 UNK         0.0745 
     79 H79        30.1024   21.9092    5.0591 H         1 UNK         0.0705 
     80 H80        28.4715   21.7501    5.6596 H         1 UNK         0.0705 
     81 H81        30.9585   24.1074    4.6079 H         1 UNK         0.1334 
     82 H82        28.3402   27.5000    4.6186 H         1 UNK         0.1417 
     83 H83        26.7164   23.5358    4.8647 H         1 UNK         0.1562 
     84 H84        25.9276   27.0979    5.2740 H         1 UNK         0.0748 
     85 H85        25.2953   25.4763    5.2776 H         1 UNK         0.0748 
     86 H86        26.2287   28.5465    3.4728 H         1 UNK         0.0940 
     87 H87        25.2377   28.5283    2.0443 H         1 UNK         0.0940 
     88 H88        28.0066   27.2358    2.2088 H         1 UNK         0.0703 
     89 H89        26.0482   27.2144    0.0870 H         1 UNK         0.3081 
     90 H90        26.7877   26.8215   -2.1813 H         1 UNK         0.0719 
     91 H91        29.2856   25.0442   -2.3106 H         1 UNK         0.0809 
     92 H92        28.2359   25.4633   -3.6627 H         1 UNK         0.0809 
     93 H93        29.1889   26.7075   -2.8695 H         1 UNK         0.0809 
     94 H94        27.2037   23.9813   -1.6820 H         1 UNK         0.2990 
     95 H95        25.2133   23.0098    0.1354 H         1 UNK         0.0690 
     96 H96        22.9440   22.3221   -0.6650 H         1 UNK         0.0788 
     97 H97        22.9029   23.7236   -1.7340 H         1 UNK         0.0788 
     98 H98        22.9471   23.9415    0.0109 H         1 UNK         0.0788 
     99 H99        25.1123   22.8022   -2.8458 H         1 UNK         0.2993 
    100 H100       25.5318   20.6281    0.1039 H         1 UNK         0.0949 
    101 H101       28.0302   19.3780   -1.1420 H         1 UNK         0.0767 
    102 H102       27.2768   18.9022    0.3782 H         1 UNK         0.0767 
    103 H103       26.4236   18.6585   -1.1359 H         1 UNK         0.0767 
    104 H104       27.2165   21.5030    1.3363 H         1 UNK         0.3013 
    105 H105       29.7353   28.3217    1.1684 H         1 UNK         0.3121 
    106 H106       29.5791   31.1314    0.4293 H         1 UNK         0.0774 
    107 H107       32.0734   30.8494    0.1975 H         1 UNK         0.0815 
    108 H108       31.9177   29.2027    0.7957 H         1 UNK         0.0815 
    109 H109       31.1568   29.6633   -0.7206 H         1 UNK         0.0815 
    110 H110       28.5268   31.7885    2.4120 H         1 UNK         0.2987 
    111 H111       29.7463   31.9190    4.9637 H         1 UNK         0.0949 
    112 H112       28.0123   33.6914    5.3684 H         1 UNK         0.0806 
    113 H113       27.6917   33.7872    3.6428 H         1 UNK         0.0806 
    114 H114       27.3137   32.3142    4.5351 H         1 UNK         0.0806 
    115 H115       30.5300   33.8008    6.0820 H         1 UNK         0.3010 
    116 H116       31.9628   35.3848    6.5582 H         1 UNK         0.0829 
    117 H117       30.6892   36.9348    5.0749 H         1 UNK         0.0813 
    118 H118       32.4040   37.3125    5.1046 H         1 UNK         0.0813 
    119 H119       31.7185   36.4948    3.7130 H         1 UNK         0.0813 
    120 H120       32.7034   33.9810    3.3747 H         1 UNK         0.3038 
    121 H121       35.5890   33.8249    3.7928 H         1 UNK         0.0769 
    122 H122       35.4847   32.3668    1.7591 H         1 UNK         0.0811 
    123 H123       34.6008   33.8625    1.5031 H         1 UNK         0.0811 
    124 H124       33.7276   32.3657    1.8310 H         1 UNK         0.0811 
    125 H125       32.8295   31.9583    4.7487 H         1 UNK         0.3204 
    126 H126       32.4295   30.1256    5.9148 H         1 UNK         0.0748 
    127 H127       33.9810   29.4728    7.7275 H         1 UNK         0.0771 
    128 H128       35.2943   30.3732    6.9824 H         1 UNK         0.0771 
    129 H129       33.8938   31.2237    7.6328 H         1 UNK         0.0771 
    130 H130       33.1414   29.7766    3.2569 H         1 UNK         0.2980 
    131 H131       33.7878   28.3847    1.6749 H         1 UNK         0.0545 
    132 H132       36.1015   29.5335    3.4504 H         1 UNK         0.3459 
    133 H133       37.4376   28.5810    2.8511 H         1 UNK         0.3459 
    134 H134       33.5680   26.1356    3.7368 H         1 UNK         0.0616 
    135 H135       33.5884   25.9341    2.0116 H         1 UNK         0.0616 
    136 H136       30.7454   27.8290    4.7380 H         1 UNK         0.0634 
    137 H137       31.7882   26.4677    5.0655 H         1 UNK         0.0634 
@<TRIPOS>BOND
     1    1    2 1    
     2    1   72 1    
     3    1   73 1    
     4    1   74 1    
     5    2    3 2    
     6    2    4 am   BACKBONE|DICT|INTERRES
     7    4    5 1    
     8    4   75 1    
     9    5    6 1    
    10    5   35 1    
    11    5   76 1    
    12    6    7 1    
    13    6   77 1    
    14    6   78 1    
    15    7    8 1    
    16    8    9 1    
    17    8   79 1    
    18    8   80 1    
    19    9   10 ar   
    20    9   14 ar   
    21   10   11 ar   
    22   10   81 1    
    23   11   12 ar   
    24   11   71 1    
    25   12   13 ar   
    26   12   82 1    
    27   13   14 ar   
    28   13   15 1    
    29   14   83 1    
    30   15   16 1    
    31   15   84 1    
    32   15   85 1    
    33   16   17 1    
    34   17   18 1    
    35   17   86 1    
    36   17   87 1    
    37   18   19 1    
    38   18   37 1    
    39   18   88 1    
    40   19   20 am   BACKBONE|DICT|INTERRES
    41   19   89 1    
    42   20   21 2    
    43   20   22 1    
    44   22   23 1    
    45   22   24 1    
    46   22   90 1    
    47   23   91 1    
    48   23   92 1    
    49   23   93 1    
    50   24   25 am   BACKBONE|DICT|INTERRES
    51   24   94 1    
    52   25   26 2    
    53   25   27 1    
    54   27   28 1    
    55   27   29 1    
    56   27   95 1    
    57   28   96 1    
    58   28   97 1    
    59   28   98 1    
    60   29   30 am   BACKBONE|DICT|INTERRES
    61   29   99 1    
    62   30   31 2    
    63   30   32 1    
    64   32   33 1    
    65   32   34 1    
    66   32  100 1    
    67   33  101 1    
    68   33  102 1    
    69   33  103 1    
    70   34   35 am   BACKBONE|DICT|INTERRES
    71   34  104 1    
    72   35   36 2    
    73   37   38 2    
    74   37   39 am   BACKBONE|DICT|INTERRES
    75   39   40 1    
    76   39  105 1    
    77   40   41 1    
    78   40   42 1    
    79   40  106 1    
    80   41  107 1    
    81   41  108 1    
    82   41  109 1    
    83   42   43 2    
    84   42   44 am   BACKBONE|DICT|INTERRES
    85   44   45 1    
    86   44  110 1    
    87   45   46 1    
    88   45   47 1    
    89   45  111 1    
    90   46  112 1    
    91   46  113 1    
    92   46  114 1    
    93   47   48 2    
    94   47   49 am   BACKBONE|DICT|INTERRES
    95   49   50 1    
    96   49  115 1    
    97   50   51 1    
    98   50   52 1    
    99   50  116 1    
   100   51  117 1    
   101   51  118 1    
   102   51  119 1    
   103   52   53 2    
   104   52   54 am   BACKBONE|DICT|INTERRES
   105   54   55 1    
   106   54  120 1    
   107   55   56 1    
   108   55   57 1    
   109   55  121 1    
   110   56  122 1    
   111   56  123 1    
   112   56  124 1    
   113   57   58 2    
   114   57   59 am   BACKBONE|DICT|INTERRES
   115   59   60 1    
   116   59  125 1    
   117   60   61 1    
   118   60   62 1    
   119   60  126 1    
   120   61  127 1    
   121   61  128 1    
   122   61  129 1    
   123   62   63 2    
   124   62   64 am   BACKBONE|DICT|INTERRES
   125   64   65 1    
   126   64  130 1    
   127   65   66 1    
   128   65   69 1    
   129   65  131 1    
   130   66   67 am   BACKBONE|DICT|INTERRES
   131   66   68 2    
   132   67  132 1    
   133   67  133 1    
   134   69   70 1    
   135   69  134 1    
   136   69  135 1    
   137   70   71 1    
   138   71  136 1    
   139   71  137 1    
@<TRIPOS>SUBSTRUCTURE
     1 UNK         1 GROUP             0       ****    0 ROOT    
