@<TRIPOS>MOLECULE
3R136
137   139    1
SMALL
USER_CHARGES


@<TRIPOS>ATOM
      1 CA         29.8584   26.5640    4.8629 C.3       0 UNK        -0.1979 
      2 C          28.8256   25.6442    4.2323 C.2       0 UNK         0.4864 
      3 O          27.7476   25.4543    4.7980 O.2       0 UNK        -0.5359 
      4 N          29.1332   25.0773    3.0578 N.am      1 UNK        -0.4318 
      5 CA         28.3016   24.1073    2.3283 C.3       1 UNK         0.0824 
      6 C6         29.1523   23.1827    1.4166 C.3       12 UNK        -0.0944 
      7 S7         30.3520   22.1903    2.3741 S.3       12 UNK        -0.2672 
      8 C8         31.9530   22.6887    1.6631 C.3       12 UNK         0.0333 
      9 C9         32.3007   24.1332    1.9903 C.ar      12 UNK        -0.0807 
     10 C10        32.7800   24.4731    3.2579 C.ar      12 UNK        -0.0894 
     11 C11        33.1074   25.7979    3.5560 C.ar      12 UNK        -0.0804 
     12 C12        32.9255   26.7864    2.5845 C.ar      12 UNK        -0.0824 
     13 C13        32.4493   26.4663    1.3102 C.ar      12 UNK        -0.0762 
     14 C14        32.1552   25.1270    1.0190 C.ar      12 UNK        -0.0782 
     15 C15        32.2732   27.6089    0.3052 C.3       12 UNK         0.0230 
     16 S16        31.8688   27.1295   -1.4125 S.3       12 UNK        -0.2608 
     17 C17        30.1527   26.5257   -1.2642 C.3       12 UNK        -0.0989 
     18 CA         29.1398   27.3951   -2.0556 C.3       5 UNK         0.0716 
     19 N          27.8819   26.6869   -2.2645 N.am      5 UNK        -0.4135 
     20 C          27.6253   25.8665   -3.2917 C.2       4 UNK         0.5031 
     21 O          28.4427   25.6119   -4.1779 O.2       4 UNK        -0.5229 
     22 CA         26.2362   25.2004   -3.3591 C.3       4 UNK         0.0329 
     23 CB         26.3411   23.6946   -3.0645 C.3       4 UNK        -0.2001 
     24 N          25.2587   25.7995   -2.4489 N.am      4 UNK        -0.4303 
     25 C          24.6557   26.9800   -2.6494 C.2       3 UNK         0.5044 
     26 O          24.7917   27.6470   -3.6756 O.2       3 UNK        -0.5152 
     27 CA         23.7625   27.5259   -1.5176 C.3       3 UNK         0.0319 
     28 CB         22.2776   27.3794   -1.8885 C.3       3 UNK        -0.2001 
     29 N          23.9855   26.9169   -0.2003 N.am      3 UNK        -0.4354 
     30 C          25.1285   26.9556    0.4995 C.2       2 UNK         0.4964 
     31 O          26.1545   27.4898    0.0789 O.2       2 UNK        -0.5047 
     32 CA         25.1197   26.2920    1.8937 C.3       2 UNK         0.0288 
     33 CB         23.9701   25.2765    2.0866 C.3       2 UNK        -0.2113 
     34 N          26.3912   25.6606    2.2685 N.am      2 UNK        -0.4145 
     35 C          27.1065   24.7563    1.5830 C.2       1 UNK         0.5006 
     36 O          26.8337   24.4013    0.4340 O.2       1 UNK        -0.5103 
     37 C          28.7933   28.7561   -1.4290 C.2       5 UNK         0.5055 
     38 O          28.3751   29.6634   -2.1509 O.2       5 UNK        -0.5220 
     39 N          28.9331   28.8660   -0.1067 N.am      6 UNK        -0.4450 
     40 CA         28.4715   29.9666    0.7241 C.3       6 UNK         0.0367 
     41 CB         29.6074   30.9846    0.9271 C.3       6 UNK        -0.1929 
     42 C          28.0476   29.3438    2.0562 C.2       6 UNK         0.5070 
     43 O          28.6128   28.3199    2.4449 O.2       6 UNK        -0.5237 
     44 N          27.0788   29.9682    2.7359 N.am      7 UNK        -0.4739 
     45 CA         26.6047   29.5371    4.0565 C.3       7 UNK         0.0276 
     46 CB         25.1872   30.0851    4.2872 C.3       7 UNK        -0.1927 
     47 C          27.5460   29.9576    5.2008 C.2       7 UNK         0.5013 
     48 O          27.4762   29.3749    6.2836 O.2       7 UNK        -0.5193 
     49 N          28.4004   30.9581    4.9478 N.am      8 UNK        -0.4253 
     50 CA         29.4726   31.3906    5.8428 C.3       8 UNK         0.0242 
     51 CB         29.9467   32.7881    5.4110 C.3       8 UNK        -0.2000 
     52 C          30.6440   30.3983    5.8030 C.2       8 UNK         0.4948 
     53 O          30.8668   29.7535    4.7751 O.2       8 UNK        -0.5275 
     54 N          31.4159   30.3343    6.8956 N.am      9 UNK        -0.4246 
     55 CA         32.5845   29.4615    7.0698 C.3       9 UNK         0.0261 
     56 CB         32.9045   29.3484    8.5719 C.3       9 UNK        -0.1959 
     57 C          33.8121   29.8954    6.2368 C.2       9 UNK         0.5033 
     58 O          34.9225   29.9938    6.7647 O.2       9 UNK        -0.5390 
     59 N          33.6037   30.1176    4.9342 N.am      10 UNK        -0.4215 
     60 CA         34.5880   30.5389    3.9336 C.3       10 UNK         0.0240 
     61 CB         33.8310   31.1397    2.7329 C.3       10 UNK        -0.1982 
     62 C          35.5563   29.4098    3.5187 C.2       10 UNK         0.4970 
     63 O          35.7855   29.2032    2.3259 O.2       10 UNK        -0.4916 
     64 N          36.0957   28.6936    4.5080 N.am      11 UNK        -0.4279 
     65 CA         37.0396   27.5811    4.3497 C.3       11 UNK         0.1003 
     66 C          38.0422   27.4369    5.5311 C.2       11 UNK         0.5709 
     67 N          38.0219   28.3032    6.5396 N.am      11 UNK        -0.7358 
     68 O          38.8792   26.5371    5.5217 O.2       11 UNK        -0.4999 
     69 C69        36.3311   26.2546    3.9524 C.3       12 UNK        -0.0954 
     70 S70        35.3005   25.5045    5.2651 S.3       12 UNK        -0.2268 
     71 C71        33.6382   26.1709    4.9322 C.3       12 UNK         0.0203 
     72 H72        29.3654   27.3736    5.4000 H         1 UNK         0.0888 
     73 H73        30.4792   26.0122    5.5670 H         1 UNK         0.0888 
     74 H74        30.4988   27.0177    4.1075 H         1 UNK         0.0888 
     75 H75        30.0325   25.2755    2.6420 H         1 UNK         0.3017 
     76 H76        27.8385   23.4578    3.0746 H         1 UNK         0.0873 
     77 H77        29.6598   23.7613    0.6443 H         1 UNK         0.0745 
     78 H78        28.5132   22.4730    0.8877 H         1 UNK         0.0745 
     79 H79        31.9369   22.5241    0.5845 H         1 UNK         0.0705 
     80 H80        32.7309   22.0333    2.0577 H         1 UNK         0.0705 
     81 H81        32.9049   23.7061    4.0103 H         1 UNK         0.1334 
     82 H82        33.1597   27.8152    2.8190 H         1 UNK         0.1417 
     83 H83        31.8090   24.8388    0.0384 H         1 UNK         0.1562 
     84 H84        31.5117   28.2940    0.6775 H         1 UNK         0.0748 
     85 H85        33.2021   28.1810    0.2723 H         1 UNK         0.0748 
     86 H86        29.8604   26.4005   -0.2205 H         1 UNK         0.0940 
     87 H87        30.1538   25.5161   -1.6788 H         1 UNK         0.0940 
     88 H88        29.5741   27.6185   -3.0329 H         1 UNK         0.0703 
     89 H89        27.1574   26.8720   -1.5759 H         1 UNK         0.3081 
     90 H90        25.8710   25.3185   -4.3816 H         1 UNK         0.0719 
     91 H91        27.0198   23.2065   -3.7653 H         1 UNK         0.0809 
     92 H92        26.7207   23.5039   -2.0605 H         1 UNK         0.0809 
     93 H93        25.3730   23.2023   -3.1578 H         1 UNK         0.0809 
     94 H94        25.1129   25.3281   -1.5668 H         1 UNK         0.2990 
     95 H95        23.9873   28.5905   -1.4242 H         1 UNK         0.0690 
     96 H96        21.6334   27.8542   -1.1482 H         1 UNK         0.0788 
     97 H97        21.9838   26.3320   -1.9697 H         1 UNK         0.0788 
     98 H98        22.0651   27.8523   -2.8485 H         1 UNK         0.0788 
     99 H99        23.1944   26.4445    0.2134 H         1 UNK         0.2993 
    100 H100       24.9687   27.1052    2.6046 H         1 UNK         0.0949 
    101 H101       24.0125   24.4720    1.3508 H         1 UNK         0.0767 
    102 H102       24.0158   24.8184    3.0750 H         1 UNK         0.0767 
    103 H103       22.9916   25.7524    2.0113 H         1 UNK         0.0767 
    104 H104       26.7327   25.8736    3.2016 H         1 UNK         0.3013 
    105 H105       29.1934   28.0551    0.4408 H         1 UNK         0.3121 
    106 H106       27.6076   30.4470    0.2595 H         1 UNK         0.0774 
    107 H107       29.2689   31.8352    1.5193 H         1 UNK         0.0815 
    108 H108       30.4572   30.5416    1.4488 H         1 UNK         0.0815 
    109 H109       29.9654   31.3744   -0.0258 H         1 UNK         0.0815 
    110 H110       26.6525   30.7959    2.3431 H         1 UNK         0.2987 
    111 H111       26.5550   28.4457    4.0718 H         1 UNK         0.0949 
    112 H112       24.4966   29.7363    3.5191 H         1 UNK         0.0806 
    113 H113       24.7932   29.7539    5.2491 H         1 UNK         0.0806 
    114 H114       25.1697   31.1757    4.2864 H         1 UNK         0.0806 
    115 H115       28.4109   31.3378    4.0139 H         1 UNK         0.3010 
    116 H116       29.0827   31.4431    6.8618 H         1 UNK         0.0829 
    117 H117       30.3574   32.7813    4.4001 H         1 UNK         0.0813 
    118 H118       30.7269   33.1613    6.0758 H         1 UNK         0.0813 
    119 H119       29.1300   33.5099    5.4366 H         1 UNK         0.0813 
    120 H120       31.1933   30.9357    7.6763 H         1 UNK         0.3038 
    121 H121       32.3075   28.4646    6.7208 H         1 UNK         0.0769 
    122 H122       32.0465   28.9811    9.1354 H         1 UNK         0.0811 
    123 H123       33.1996   30.3096    8.9948 H         1 UNK         0.0811 
    124 H124       33.7241   28.6499    8.7468 H         1 UNK         0.0811 
    125 H125       32.6465   29.9837    4.6080 H         1 UNK         0.3204 
    126 H126       35.1988   31.3303    4.3726 H         1 UNK         0.0748 
    127 H127       33.2049   30.3960    2.2380 H         1 UNK         0.0771 
    128 H128       33.1880   31.9643    3.0418 H         1 UNK         0.0771 
    129 H129       34.5229   31.5345    1.9877 H         1 UNK         0.0771 
    130 H130       35.8419   28.9390    5.4599 H         1 UNK         0.2980 
    131 H131       37.6859   27.8472    3.5113 H         1 UNK         0.0545 
    132 H132       38.6900   28.1901    7.2857 H         1 UNK         0.3459 
    133 H133       37.3661   29.0675    6.5730 H         1 UNK         0.3459 
    134 H134       37.0798   25.5137    3.6678 H         1 UNK         0.0616 
    135 H135       35.7319   26.4052    3.0546 H         1 UNK         0.0616 
    136 H136       33.6643   27.2517    5.0513 H         1 UNK         0.0634 
    137 H137       32.9545   25.7956    5.6942 H         1 UNK         0.0634 
@<TRIPOS>BOND
     1    1    2 1    
     2    1   72 1    
     3    1   73 1    
     4    1   74 1    
     5    2    3 2    
     6    2    4 am   BACKBONE|DICT|INTERRES
     7    4    5 1    
     8    4   75 1    
     9    5    6 1    
    10    5   35 1    
    11    5   76 1    
    12    6    7 1    
    13    6   77 1    
    14    6   78 1    
    15    7    8 1    
    16    8    9 1    
    17    8   79 1    
    18    8   80 1    
    19    9   10 ar   
    20    9   14 ar   
    21   10   11 ar   
    22   10   81 1    
    23   11   12 ar   
    24   11   71 1    
    25   12   13 ar   
    26   12   82 1    
    27   13   14 ar   
    28   13   15 1    
    29   14   83 1    
    30   15   16 1    
    31   15   84 1    
    32   15   85 1    
    33   16   17 1    
    34   17   18 1    
    35   17   86 1    
    36   17   87 1    
    37   18   19 1    
    38   18   37 1    
    39   18   88 1    
    40   19   20 am   BACKBONE|DICT|INTERRES
    41   19   89 1    
    42   20   21 2    
    43   20   22 1    
    44   22   23 1    
    45   22   24 1    
    46   22   90 1    
    47   23   91 1    
    48   23   92 1    
    49   23   93 1    
    50   24   25 am   BACKBONE|DICT|INTERRES
    51   24   94 1    
    52   25   26 2    
    53   25   27 1    
    54   27   28 1    
    55   27   29 1    
    56   27   95 1    
    57   28   96 1    
    58   28   97 1    
    59   28   98 1    
    60   29   30 am   BACKBONE|DICT|INTERRES
    61   29   99 1    
    62   30   31 2    
    63   30   32 1    
    64   32   33 1    
    65   32   34 1    
    66   32  100 1    
    67   33  101 1    
    68   33  102 1    
    69   33  103 1    
    70   34   35 am   BACKBONE|DICT|INTERRES
    71   34  104 1    
    72   35   36 2    
    73   37   38 2    
    74   37   39 am   BACKBONE|DICT|INTERRES
    75   39   40 1    
    76   39  105 1    
    77   40   41 1    
    78   40   42 1    
    79   40  106 1    
    80   41  107 1    
    81   41  108 1    
    82   41  109 1    
    83   42   43 2    
    84   42   44 am   BACKBONE|DICT|INTERRES
    85   44   45 1    
    86   44  110 1    
    87   45   46 1    
    88   45   47 1    
    89   45  111 1    
    90   46  112 1    
    91   46  113 1    
    92   46  114 1    
    93   47   48 2    
    94   47   49 am   BACKBONE|DICT|INTERRES
    95   49   50 1    
    96   49  115 1    
    97   50   51 1    
    98   50   52 1    
    99   50  116 1    
   100   51  117 1    
   101   51  118 1    
   102   51  119 1    
   103   52   53 2    
   104   52   54 am   BACKBONE|DICT|INTERRES
   105   54   55 1    
   106   54  120 1    
   107   55   56 1    
   108   55   57 1    
   109   55  121 1    
   110   56  122 1    
   111   56  123 1    
   112   56  124 1    
   113   57   58 2    
   114   57   59 am   BACKBONE|DICT|INTERRES
   115   59   60 1    
   116   59  125 1    
   117   60   61 1    
   118   60   62 1    
   119   60  126 1    
   120   61  127 1    
   121   61  128 1    
   122   61  129 1    
   123   62   63 2    
   124   62   64 am   BACKBONE|DICT|INTERRES
   125   64   65 1    
   126   64  130 1    
   127   65   66 1    
   128   65   69 1    
   129   65  131 1    
   130   66   67 am   BACKBONE|DICT|INTERRES
   131   66   68 2    
   132   67  132 1    
   133   67  133 1    
   134   69   70 1    
   135   69  134 1    
   136   69  135 1    
   137   70   71 1    
   138   71  136 1    
   139   71  137 1    
@<TRIPOS>SUBSTRUCTURE
     1 UNK         1 GROUP             0       ****    0 ROOT    
