@<TRIPOS>MOLECULE
3R136
137   139    1
SMALL
USER_CHARGES


@<TRIPOS>ATOM
      1 CA         26.0686   26.2051    4.1418 C.3       0 UNK        -0.1979 
      2 C          26.9227   24.9502    4.0422 C.2       0 UNK         0.4864 
      3 O          26.7567   24.0265    4.8414 O.2       0 UNK        -0.5359 
      4 N          27.8319   24.8993    3.0621 N.am      1 UNK        -0.4318 
      5 CA         28.7687   23.8005    2.8047 C.3       1 UNK         0.0824 
      6 C6         29.9940   24.3371    2.0276 C.3       12 UNK        -0.0944 
      7 S7         31.4421   23.2283    2.0906 S.3       12 UNK        -0.2672 
      8 C8         32.1234   23.4662    0.4137 C.3       12 UNK         0.0333 
      9 C9         32.3480   24.9392    0.0905 C.ar      12 UNK        -0.0807 
     10 C10        33.1340   25.7278    0.9336 C.ar      12 UNK        -0.0894 
     11 C11        33.2738   27.0976    0.7041 C.ar      12 UNK        -0.0804 
     12 C12        32.6754   27.6685   -0.4241 C.ar      12 UNK        -0.0824 
     13 C13        31.9168   26.8832   -1.3003 C.ar      12 UNK        -0.0762 
     14 C14        31.7462   25.5213   -1.0298 C.ar      12 UNK        -0.0782 
     15 C15        31.3175   27.4950   -2.5605 C.3       12 UNK         0.0230 
     16 S16        29.9175   28.6056   -2.2153 S.3       12 UNK        -0.2608 
     17 C17        28.5680   27.4383   -1.8171 C.3       12 UNK        -0.0989 
     18 CA         27.5546   28.0700   -0.8293 C.3       5 UNK         0.0716 
     19 N          26.2451   27.4168   -0.8733 N.am      5 UNK        -0.4135 
     20 C          25.1171   27.9624   -0.3933 C.2       4 UNK         0.5031 
     21 O          25.0710   29.0767    0.1308 O.2       4 UNK        -0.5229 
     22 CA         23.8051   27.1652   -0.5455 C.3       4 UNK         0.0329 
     23 CB         22.9599   27.7422   -1.6936 C.3       4 UNK        -0.2001 
     24 N          23.9849   25.7261   -0.7633 N.am      4 UNK        -0.4303 
     25 C          24.4567   24.8785    0.1583 C.2       3 UNK         0.5044 
     26 O          24.7934   25.2266    1.2938 O.2       3 UNK        -0.5152 
     27 CA         24.5932   23.4065   -0.2606 C.3       3 UNK         0.0319 
     28 CB         25.5294   23.2586   -1.4807 C.3       3 UNK        -0.2001 
     29 N          25.1424   22.6981    0.8874 N.am      3 UNK        -0.4354 
     30 C          25.3544   21.3882    1.0441 C.2       2 UNK         0.4964 
     31 O          24.9720   20.5303    0.2464 O.2       2 UNK        -0.5047 
     32 CA         26.1440   20.9825    2.3097 C.3       2 UNK         0.0288 
     33 CB         26.8953   19.6449    2.1389 C.3       2 UNK        -0.2113 
     34 N          27.0594   22.0355    2.7843 N.am      2 UNK        -0.4145 
     35 C          28.0627   22.6154    2.1034 C.2       1 UNK         0.5006 
     36 O          28.3937   22.2818    0.9633 O.2       1 UNK        -0.5103 
     37 C          28.1249   28.1054    0.6013 C.2       5 UNK         0.5055 
     38 O          28.1318   27.0827    1.2904 O.2       5 UNK        -0.5220 
     39 N          28.6458   29.2765    0.9747 N.am      6 UNK        -0.4450 
     40 CA         29.4642   29.5299    2.1551 C.3       6 UNK         0.0367 
     41 CB         28.6023   29.5828    3.4326 C.3       6 UNK        -0.1929 
     42 C          30.2542   30.8227    1.8955 C.2       6 UNK         0.5070 
     43 O          30.2149   31.7483    2.7055 O.2       6 UNK        -0.5237 
     44 N          30.9151   30.8872    0.7287 N.am      7 UNK        -0.4739 
     45 CA         31.5317   32.0940    0.1595 C.3       7 UNK         0.0276 
     46 CB         32.0943   31.7671   -1.2334 C.3       7 UNK        -0.1927 
     47 C          32.6135   32.7656    1.0251 C.2       7 UNK         0.5013 
     48 O          32.7595   33.9864    0.9551 O.2       7 UNK        -0.5193 
     49 N          33.3388   31.9732    1.8243 N.am      8 UNK        -0.4253 
     50 CA         34.3618   32.4497    2.7609 C.3       8 UNK         0.0242 
     51 CB         35.5658   31.4904    2.7234 C.3       8 UNK        -0.2000 
     52 C          33.8240   32.6043    4.1964 C.2       8 UNK         0.4948 
     53 O          34.6211   32.8594    5.1014 O.2       8 UNK        -0.5275 
     54 N          32.5086   32.4217    4.4012 N.am      9 UNK        -0.4246 
     55 CA         31.7655   32.4133    5.6689 C.3       9 UNK         0.0261 
     56 CB         31.8640   33.7615    6.4104 C.3       9 UNK        -0.1959 
     57 C          32.1341   31.2307    6.5788 C.2       9 UNK         0.5033 
     58 O          31.2672   30.4169    6.8991 O.2       9 UNK        -0.5390 
     59 N          33.4172   31.1176    6.9394 N.am      10 UNK        -0.4215 
     60 CA         34.0012   30.0426    7.7461 C.3       10 UNK         0.0240 
     61 CB         35.2667   30.5797    8.4408 C.3       10 UNK        -0.1982 
     62 C          34.2732   28.7692    6.9166 C.2       10 UNK         0.4970 
     63 O          35.3474   28.1762    7.0313 O.2       10 UNK        -0.4916 
     64 N          33.2997   28.3778    6.0879 N.am      11 UNK        -0.4279 
     65 CA         33.3490   27.1943    5.2168 C.3       11 UNK         0.1003 
     66 C          33.0312   25.8560    5.9444 C.2       11 UNK         0.5709 
     67 N          32.5390   25.8661    7.1781 N.am      11 UNK        -0.7358 
     68 O          33.2523   24.7861    5.3835 O.2       11 UNK        -0.4999 
     69 C69        32.4537   27.3811    3.9657 C.3       12 UNK        -0.0954 
     70 S70        33.0093   28.7659    2.9132 S.3       12 UNK        -0.2268 
     71 C71        34.0735   27.9502    1.6787 C.3       12 UNK         0.0203 
     72 H72        25.0125   25.9379    4.1669 H         1 UNK         0.0888 
     73 H73        26.3075   26.7539    5.0520 H         1 UNK         0.0888 
     74 H74        26.2237   26.8674    3.2898 H         1 UNK         0.0888 
     75 H75        27.8993   25.6840    2.4122 H         1 UNK         0.3017 
     76 H76        29.1240   23.4344    3.7706 H         1 UNK         0.0873 
     77 H77        30.3157   25.2901    2.4517 H         1 UNK         0.0745 
     78 H78        29.7230   24.5573    0.9931 H         1 UNK         0.0745 
     79 H79        31.4431   23.0084   -0.3064 H         1 UNK         0.0705 
     80 H80        33.0704   22.9313    0.3330 H         1 UNK         0.0705 
     81 H81        33.6024   25.2764    1.7978 H         1 UNK         0.1334 
     82 H82        32.8034   28.7225   -0.6232 H         1 UNK         0.1417 
     83 H83        31.1478   24.9127   -1.6941 H         1 UNK         0.1562 
     84 H84        30.9983   26.7203   -3.2596 H         1 UNK         0.0748 
     85 H85        32.0916   28.0650   -3.0765 H         1 UNK         0.0748 
     86 H86        28.9712   26.5016   -1.4266 H         1 UNK         0.0940 
     87 H87        28.0737   27.1871   -2.7569 H         1 UNK         0.0940 
     88 H88        27.3820   29.0994   -1.1537 H         1 UNK         0.0703 
     89 H89        26.2089   26.4857   -1.2575 H         1 UNK         0.3081 
     90 H90        23.2454   27.2939    0.3837 H         1 UNK         0.0719 
     91 H91        22.7751   28.8074   -1.5463 H         1 UNK         0.0809 
     92 H92        23.4565   27.6287   -2.6580 H         1 UNK         0.0809 
     93 H93        21.9870   27.2541   -1.7556 H         1 UNK         0.0809 
     94 H94        23.7214   25.3671   -1.6700 H         1 UNK         0.2990 
     95 H95        23.6027   23.0091   -0.4887 H         1 UNK         0.0690 
     96 H96        25.6425   22.2154   -1.7752 H         1 UNK         0.0788 
     97 H97        26.5258   23.6503   -1.2702 H         1 UNK         0.0788 
     98 H98        25.1434   23.7874   -2.3524 H         1 UNK         0.0788 
     99 H99        25.4362   23.3330    1.6214 H         1 UNK         0.2993 
    100 H100       25.3998   20.8467    3.0959 H         1 UNK         0.0949 
    101 H101       27.6164   19.6881    1.3220 H         1 UNK         0.0767 
    102 H102       27.4333   19.3736    3.0473 H         1 UNK         0.0767 
    103 H103       26.2031   18.8312    1.9190 H         1 UNK         0.0767 
    104 H104       26.8416   22.4400    3.6922 H         1 UNK         0.3013 
    105 H105       28.5750   30.0569    0.3349 H         1 UNK         0.3121 
    106 H106       30.1841   28.7162    2.2546 H         1 UNK         0.0774 
    107 H107       29.2190   29.7864    4.3093 H         1 UNK         0.0815 
    108 H108       27.8452   30.3653    3.3736 H         1 UNK         0.0815 
    109 H109       28.0941   28.6357    3.6108 H         1 UNK         0.0815 
    110 H110       30.9049   30.0700    0.1343 H         1 UNK         0.2987 
    111 H111       30.7322   32.8277    0.0352 H         1 UNK         0.0949 
    112 H112       32.5067   32.6598   -1.7059 H         1 UNK         0.0806 
    113 H113       31.3200   31.3834   -1.8979 H         1 UNK         0.0806 
    114 H114       32.8951   31.0291   -1.1845 H         1 UNK         0.0806 
    115 H115       33.1329   30.9828    1.8399 H         1 UNK         0.3010 
    116 H116       34.7167   33.4345    2.4500 H         1 UNK         0.0829 
    117 H117       35.3258   30.5155    3.1468 H         1 UNK         0.0813 
    118 H118       35.9231   31.3378    1.7049 H         1 UNK         0.0813 
    119 H119       36.4005   31.8921    3.2994 H         1 UNK         0.0813 
    120 H120       31.9296   32.2110    3.5930 H         1 UNK         0.3038 
    121 H121       30.7191   32.2762    5.3906 H         1 UNK         0.0769 
    122 H122       31.2314   33.7610    7.2989 H         1 UNK         0.0811 
    123 H123       31.5314   34.5841    5.7773 H         1 UNK         0.0811 
    124 H124       32.8796   33.9830    6.7388 H         1 UNK         0.0811 
    125 H125       34.0626   31.7890    6.5268 H         1 UNK         0.3204 
    126 H126       33.2877   29.7658    8.5249 H         1 UNK         0.0748 
    127 H127       35.6996   29.8308    9.1055 H         1 UNK         0.0771 
    128 H128       36.0339   30.8600    7.7176 H         1 UNK         0.0771 
    129 H129       35.0430   31.4568    9.0485 H         1 UNK         0.0771 
    130 H130       32.4371   28.9091    6.0838 H         1 UNK         0.2980 
    131 H131       34.3758   27.0886    4.8612 H         1 UNK         0.0545 
    132 H132       32.3551   26.7364    7.6499 H         1 UNK         0.3459 
    133 H133       32.3465   24.9906    7.6384 H         1 UNK         0.3459 
    134 H134       31.4238   27.5794    4.2674 H         1 UNK         0.0616 
    135 H135       32.4123   26.4687    3.3745 H         1 UNK         0.0616 
    136 H136       34.8248   27.3483    2.1922 H         1 UNK         0.0634 
    137 H137       34.6215   28.7164    1.1284 H         1 UNK         0.0634 
@<TRIPOS>BOND
     1    1    2 1    
     2    1   72 1    
     3    1   73 1    
     4    1   74 1    
     5    2    3 2    
     6    2    4 am   BACKBONE|DICT|INTERRES
     7    4    5 1    
     8    4   75 1    
     9    5    6 1    
    10    5   35 1    
    11    5   76 1    
    12    6    7 1    
    13    6   77 1    
    14    6   78 1    
    15    7    8 1    
    16    8    9 1    
    17    8   79 1    
    18    8   80 1    
    19    9   10 ar   
    20    9   14 ar   
    21   10   11 ar   
    22   10   81 1    
    23   11   12 ar   
    24   11   71 1    
    25   12   13 ar   
    26   12   82 1    
    27   13   14 ar   
    28   13   15 1    
    29   14   83 1    
    30   15   16 1    
    31   15   84 1    
    32   15   85 1    
    33   16   17 1    
    34   17   18 1    
    35   17   86 1    
    36   17   87 1    
    37   18   19 1    
    38   18   37 1    
    39   18   88 1    
    40   19   20 am   BACKBONE|DICT|INTERRES
    41   19   89 1    
    42   20   21 2    
    43   20   22 1    
    44   22   23 1    
    45   22   24 1    
    46   22   90 1    
    47   23   91 1    
    48   23   92 1    
    49   23   93 1    
    50   24   25 am   BACKBONE|DICT|INTERRES
    51   24   94 1    
    52   25   26 2    
    53   25   27 1    
    54   27   28 1    
    55   27   29 1    
    56   27   95 1    
    57   28   96 1    
    58   28   97 1    
    59   28   98 1    
    60   29   30 am   BACKBONE|DICT|INTERRES
    61   29   99 1    
    62   30   31 2    
    63   30   32 1    
    64   32   33 1    
    65   32   34 1    
    66   32  100 1    
    67   33  101 1    
    68   33  102 1    
    69   33  103 1    
    70   34   35 am   BACKBONE|DICT|INTERRES
    71   34  104 1    
    72   35   36 2    
    73   37   38 2    
    74   37   39 am   BACKBONE|DICT|INTERRES
    75   39   40 1    
    76   39  105 1    
    77   40   41 1    
    78   40   42 1    
    79   40  106 1    
    80   41  107 1    
    81   41  108 1    
    82   41  109 1    
    83   42   43 2    
    84   42   44 am   BACKBONE|DICT|INTERRES
    85   44   45 1    
    86   44  110 1    
    87   45   46 1    
    88   45   47 1    
    89   45  111 1    
    90   46  112 1    
    91   46  113 1    
    92   46  114 1    
    93   47   48 2    
    94   47   49 am   BACKBONE|DICT|INTERRES
    95   49   50 1    
    96   49  115 1    
    97   50   51 1    
    98   50   52 1    
    99   50  116 1    
   100   51  117 1    
   101   51  118 1    
   102   51  119 1    
   103   52   53 2    
   104   52   54 am   BACKBONE|DICT|INTERRES
   105   54   55 1    
   106   54  120 1    
   107   55   56 1    
   108   55   57 1    
   109   55  121 1    
   110   56  122 1    
   111   56  123 1    
   112   56  124 1    
   113   57   58 2    
   114   57   59 am   BACKBONE|DICT|INTERRES
   115   59   60 1    
   116   59  125 1    
   117   60   61 1    
   118   60   62 1    
   119   60  126 1    
   120   61  127 1    
   121   61  128 1    
   122   61  129 1    
   123   62   63 2    
   124   62   64 am   BACKBONE|DICT|INTERRES
   125   64   65 1    
   126   64  130 1    
   127   65   66 1    
   128   65   69 1    
   129   65  131 1    
   130   66   67 am   BACKBONE|DICT|INTERRES
   131   66   68 2    
   132   67  132 1    
   133   67  133 1    
   134   69   70 1    
   135   69  134 1    
   136   69  135 1    
   137   70   71 1    
   138   71  136 1    
   139   71  137 1    
@<TRIPOS>SUBSTRUCTURE
     1 UNK         1 GROUP             0       ****    0 ROOT    
