@<TRIPOS>MOLECULE
3R136
137   139    1
SMALL
USER_CHARGES


@<TRIPOS>ATOM
      1 CA         28.6413   23.7717   -3.1752 C.3       0 UNK        -0.1979 
      2 C          28.5383   23.0107   -1.8624 C.2       0 UNK         0.4864 
      3 O          28.3826   21.7886   -1.8753 O.2       0 UNK        -0.5359 
      4 N          28.5911   23.7321   -0.7347 N.am      1 UNK        -0.4318 
      5 CA         28.4925   23.2661    0.6560 C.3       1 UNK         0.0824 
      6 C6         29.5381   22.1940    1.0643 C.3       12 UNK        -0.0944 
      7 S7         31.2595   22.7425    0.8057 S.3       12 UNK        -0.2672 
      8 C8         31.9135   22.7653    2.5037 C.3       12 UNK         0.0333 
      9 C9         31.7056   24.1134    3.1781 C.ar      12 UNK        -0.0807 
     10 C10        32.7317   25.0628    3.1596 C.ar      12 UNK        -0.0894 
     11 C11        32.5856   26.2829    3.8253 C.ar      12 UNK        -0.0804 
     12 C12        31.3935   26.5567    4.5022 C.ar      12 UNK        -0.0824 
     13 C13        30.3473   25.6263    4.5060 C.ar      12 UNK        -0.0762 
     14 C14        30.5127   24.4024    3.8488 C.ar      12 UNK        -0.0782 
     15 C15        29.0505   25.9283    5.2472 C.3       12 UNK         0.0230 
     16 S16        27.6586   26.2746    4.1195 S.3       12 UNK        -0.2608 
     17 C17        28.1985   27.8153    3.3056 C.3       12 UNK        -0.0989 
     18 CA         28.2505   27.6670    1.7658 C.3       5 UNK         0.0716 
     19 N          26.9075   27.4755    1.2016 N.am      5 UNK        -0.4135 
     20 C          26.6448   26.8356    0.0581 C.2       4 UNK         0.5031 
     21 O          27.5078   26.3303   -0.6644 O.2       4 UNK        -0.5229 
     22 CA         25.1780   26.7939   -0.3795 C.3       4 UNK         0.0329 
     23 CB         24.8480   28.0218   -1.2520 C.3       4 UNK        -0.2001 
     24 N          24.9641   25.5556   -1.1208 N.am      4 UNK        -0.4303 
     25 C          23.7841   25.0399   -1.4842 C.2       3 UNK         0.5044 
     26 O          22.6965   25.5748   -1.2663 O.2       3 UNK        -0.5152 
     27 CA         23.8318   23.6754   -2.1908 C.3       3 UNK         0.0319 
     28 CB         24.4032   23.8067   -3.6129 C.3       3 UNK        -0.2001 
     29 N          24.6172   22.7023   -1.4289 N.am      3 UNK        -0.4354 
     30 C          24.2143   22.1344   -0.2816 C.2       2 UNK         0.4964 
     31 O          23.1026   22.3056    0.2193 O.2       2 UNK        -0.5047 
     32 CA         25.2301   21.2296    0.4341 C.3       2 UNK         0.0288 
     33 CB         25.1816   19.8005   -0.1303 C.3       2 UNK        -0.2113 
     34 N          26.5948   21.7480    0.3324 N.am      2 UNK        -0.4145 
     35 C          27.0590   22.8169    0.9933 C.2       1 UNK         0.5006 
     36 O          26.3995   23.4522    1.8161 O.2       1 UNK        -0.5103 
     37 C          29.0172   28.8434    1.1154 C.2       5 UNK         0.5055 
     38 O          30.1743   29.0637    1.4739 O.2       5 UNK        -0.5220 
     39 N          28.3822   29.5766    0.1852 N.am      6 UNK        -0.4450 
     40 CA         28.9229   30.7038   -0.5840 C.3       6 UNK         0.0367 
     41 CB         29.9943   30.2148   -1.5859 C.3       6 UNK        -0.1929 
     42 C          29.3986   31.8453    0.3342 C.2       6 UNK         0.5070 
     43 O          28.5591   32.5761    0.8610 O.2       6 UNK        -0.5237 
     44 N          30.7198   31.9694    0.5216 N.am      7 UNK        -0.4739 
     45 CA         31.3571   32.9242    1.4331 C.3       7 UNK         0.0276 
     46 CB         32.8730   32.9256    1.1769 C.3       7 UNK        -0.1927 
     47 C          31.0527   32.6539    2.9198 C.2       7 UNK         0.5013 
     48 O          31.0113   33.6081    3.6982 O.2       7 UNK        -0.5193 
     49 N          30.8165   31.3775    3.2627 N.am      8 UNK        -0.4253 
     50 CA         30.4513   30.8442    4.5797 C.3       8 UNK         0.0242 
     51 CB         29.0857   31.4056    5.0320 C.3       8 UNK        -0.2000 
     52 C          31.5387   30.9952    5.6606 C.2       8 UNK         0.4948 
     53 O          32.6089   31.5558    5.4123 O.2       8 UNK        -0.5275 
     54 N          31.2526   30.4361    6.8469 N.am      9 UNK        -0.4246 
     55 CA         32.1510   30.3123    8.0004 C.3       9 UNK         0.0261 
     56 CB         32.4361   31.6955    8.6318 C.3       9 UNK        -0.1959 
     57 C          33.4089   29.5079    7.6212 C.2       9 UNK         0.5033 
     58 O          33.2860   28.3165    7.3348 O.2       9 UNK        -0.5390 
     59 N          34.5750   30.1641    7.5990 N.am      10 UNK        -0.4215 
     60 CA         35.8452   29.5940    7.1440 C.3       10 UNK         0.0240 
     61 CB         36.9950   30.3108    7.8732 C.3       10 UNK        -0.1982 
     62 C          36.0415   29.6761    5.6163 C.2       10 UNK         0.4970 
     63 O          37.0003   29.0862    5.1173 O.2       10 UNK        -0.4916 
     64 N          35.1712   30.4123    4.9078 N.am      11 UNK        -0.4279 
     65 CA         35.2391   30.7054    3.4648 C.3       11 UNK         0.1003 
     66 C          36.4642   31.5708    3.0337 C.2       11 UNK         0.5709 
     67 N          37.1279   32.2760    3.9426 N.am      11 UNK        -0.7358 
     68 O          36.8021   31.6389    1.8541 O.2       11 UNK        -0.4999 
     69 C69        35.0337   29.4484    2.5702 C.3       12 UNK        -0.0954 
     70 S70        33.3778   28.7060    2.7517 S.3       12 UNK        -0.2268 
     71 C71        33.7280   27.2886    3.8337 C.3       12 UNK         0.0203 
     72 H72        29.5988   23.5637   -3.6518 H         1 UNK         0.0888 
     73 H73        27.8489   23.4624   -3.8558 H         1 UNK         0.0888 
     74 H74        28.5604   24.8490   -3.0275 H         1 UNK         0.0888 
     75 H75        28.6024   24.7457   -0.8185 H         1 UNK         0.3017 
     76 H76        28.6843   24.1498    1.2679 H         1 UNK         0.0873 
     77 H77        29.3986   21.2721    0.4981 H         1 UNK         0.0745 
     78 H78        29.3983   21.9170    2.1103 H         1 UNK         0.0745 
     79 H79        31.4685   21.9668    3.0990 H         1 UNK         0.0705 
     80 H80        32.9798   22.5375    2.4601 H         1 UNK         0.0705 
     81 H81        33.6544   24.8430    2.6399 H         1 UNK         0.1334 
     82 H82        31.2877   27.4966    5.0260 H         1 UNK         0.1417 
     83 H83        29.7131   23.6746    3.8666 H         1 UNK         0.1562 
     84 H84        29.1791   26.7722    5.9270 H         1 UNK         0.0748 
     85 H85        28.7891   25.0739    5.8732 H         1 UNK         0.0748 
     86 H86        29.1813   28.0733    3.6928 H         1 UNK         0.0940 
     87 H87        27.5343   28.6294    3.6011 H         1 UNK         0.0940 
     88 H88        28.8446   26.7771    1.5441 H         1 UNK         0.0703 
     89 H89        26.1412   27.8509    1.7421 H         1 UNK         0.3081 
     90 H90        24.5396   26.7843    0.5065 H         1 UNK         0.0719 
     91 H91        25.4566   28.0459   -2.1572 H         1 UNK         0.0809 
     92 H92        23.8012   28.0319   -1.5552 H         1 UNK         0.0809 
     93 H93        25.0288   28.9507   -0.7101 H         1 UNK         0.0809 
     94 H94        25.8162   25.0540   -1.3319 H         1 UNK         0.2990 
     95 H95        22.8082   23.3028   -2.2724 H         1 UNK         0.0690 
     96 H96        24.3803   22.8518   -4.1384 H         1 UNK         0.0788 
     97 H97        25.4334   24.1635   -3.6108 H         1 UNK         0.0788 
     98 H98        23.8165   24.5128   -4.2025 H         1 UNK         0.0788 
     99 H99        25.5373   22.4776   -1.7771 H         1 UNK         0.2993 
    100 H100       24.9544   21.1914    1.4905 H         1 UNK         0.0949 
    101 H101       24.1754   19.3855   -0.0552 H         1 UNK         0.0767 
    102 H102       25.4708   19.7693   -1.1817 H         1 UNK         0.0767 
    103 H103       25.8473   19.1353    0.4201 H         1 UNK         0.0767 
    104 H104       27.2000   21.3451   -0.3784 H         1 UNK         0.3013 
    105 H105       27.4207   29.3424   -0.0105 H         1 UNK         0.3121 
    106 H106       28.0942   31.1090   -1.1670 H         1 UNK         0.0774 
    107 H107       30.3945   31.0448   -2.1699 H         1 UNK         0.0815 
    108 H108       30.8325   29.7192   -1.0951 H         1 UNK         0.0815 
    109 H109       29.5670   29.5043   -2.2937 H         1 UNK         0.0815 
    110 H110       31.3246   31.2975    0.0710 H         1 UNK         0.2987 
    111 H111       30.9697   33.9190    1.2019 H         1 UNK         0.0949 
    112 H112       33.2988   31.9272    1.2794 H         1 UNK         0.0806 
    113 H113       33.1037   33.2845    0.1738 H         1 UNK         0.0806 
    114 H114       33.3912   33.5787    1.8808 H         1 UNK         0.0806 
    115 H115       30.8767   30.6791    2.5270 H         1 UNK         0.3010 
    116 H116       30.3453   29.7728    4.4267 H         1 UNK         0.0829 
    117 H117       28.3402   31.3116    4.2420 H         1 UNK         0.0813 
    118 H118       28.6972   30.8726    5.8999 H         1 UNK         0.0813 
    119 H119       29.1526   32.4602    5.3018 H         1 UNK         0.0813 
    120 H120       30.3611   29.9725    6.9503 H         1 UNK         0.3038 
    121 H121       31.6229   29.7152    8.7455 H         1 UNK         0.0769 
    122 H122       31.5096   32.1701    8.9553 H         1 UNK         0.0811 
    123 H123       32.9258   32.3817    7.9402 H         1 UNK         0.0811 
    124 H124       33.0687   31.6029    9.5158 H         1 UNK         0.0811 
    125 H125       34.5731   31.1462    7.8353 H         1 UNK         0.3204 
    126 H126       35.8796   28.5368    7.4163 H         1 UNK         0.0748 
    127 H127       36.9036   30.2075    8.9547 H         1 UNK         0.0771 
    128 H128       37.9613   29.8895    7.5918 H         1 UNK         0.0771 
    129 H129       37.0233   31.3756    7.6386 H         1 UNK         0.0771 
    130 H130       34.3768   30.8395    5.3764 H         1 UNK         0.2980 
    131 H131       34.3891   31.3624    3.2843 H         1 UNK         0.0545 
    132 H132       37.9101   32.8413    3.6525 H         1 UNK         0.3459 
    133 H133       36.8537   32.2500    4.9109 H         1 UNK         0.3459 
    134 H134       35.1242   29.7123    1.5154 H         1 UNK         0.0616 
    135 H135       35.8082   28.7034    2.7544 H         1 UNK         0.0616 
    136 H136       34.6546   26.8079    3.5166 H         1 UNK         0.0634 
    137 H137       33.8978   27.6450    4.8490 H         1 UNK         0.0634 
@<TRIPOS>BOND
     1    1    2 1    
     2    1   72 1    
     3    1   73 1    
     4    1   74 1    
     5    2    3 2    
     6    2    4 am   BACKBONE|DICT|INTERRES
     7    4    5 1    
     8    4   75 1    
     9    5    6 1    
    10    5   35 1    
    11    5   76 1    
    12    6    7 1    
    13    6   77 1    
    14    6   78 1    
    15    7    8 1    
    16    8    9 1    
    17    8   79 1    
    18    8   80 1    
    19    9   10 ar   
    20    9   14 ar   
    21   10   11 ar   
    22   10   81 1    
    23   11   12 ar   
    24   11   71 1    
    25   12   13 ar   
    26   12   82 1    
    27   13   14 ar   
    28   13   15 1    
    29   14   83 1    
    30   15   16 1    
    31   15   84 1    
    32   15   85 1    
    33   16   17 1    
    34   17   18 1    
    35   17   86 1    
    36   17   87 1    
    37   18   19 1    
    38   18   37 1    
    39   18   88 1    
    40   19   20 am   BACKBONE|DICT|INTERRES
    41   19   89 1    
    42   20   21 2    
    43   20   22 1    
    44   22   23 1    
    45   22   24 1    
    46   22   90 1    
    47   23   91 1    
    48   23   92 1    
    49   23   93 1    
    50   24   25 am   BACKBONE|DICT|INTERRES
    51   24   94 1    
    52   25   26 2    
    53   25   27 1    
    54   27   28 1    
    55   27   29 1    
    56   27   95 1    
    57   28   96 1    
    58   28   97 1    
    59   28   98 1    
    60   29   30 am   BACKBONE|DICT|INTERRES
    61   29   99 1    
    62   30   31 2    
    63   30   32 1    
    64   32   33 1    
    65   32   34 1    
    66   32  100 1    
    67   33  101 1    
    68   33  102 1    
    69   33  103 1    
    70   34   35 am   BACKBONE|DICT|INTERRES
    71   34  104 1    
    72   35   36 2    
    73   37   38 2    
    74   37   39 am   BACKBONE|DICT|INTERRES
    75   39   40 1    
    76   39  105 1    
    77   40   41 1    
    78   40   42 1    
    79   40  106 1    
    80   41  107 1    
    81   41  108 1    
    82   41  109 1    
    83   42   43 2    
    84   42   44 am   BACKBONE|DICT|INTERRES
    85   44   45 1    
    86   44  110 1    
    87   45   46 1    
    88   45   47 1    
    89   45  111 1    
    90   46  112 1    
    91   46  113 1    
    92   46  114 1    
    93   47   48 2    
    94   47   49 am   BACKBONE|DICT|INTERRES
    95   49   50 1    
    96   49  115 1    
    97   50   51 1    
    98   50   52 1    
    99   50  116 1    
   100   51  117 1    
   101   51  118 1    
   102   51  119 1    
   103   52   53 2    
   104   52   54 am   BACKBONE|DICT|INTERRES
   105   54   55 1    
   106   54  120 1    
   107   55   56 1    
   108   55   57 1    
   109   55  121 1    
   110   56  122 1    
   111   56  123 1    
   112   56  124 1    
   113   57   58 2    
   114   57   59 am   BACKBONE|DICT|INTERRES
   115   59   60 1    
   116   59  125 1    
   117   60   61 1    
   118   60   62 1    
   119   60  126 1    
   120   61  127 1    
   121   61  128 1    
   122   61  129 1    
   123   62   63 2    
   124   62   64 am   BACKBONE|DICT|INTERRES
   125   64   65 1    
   126   64  130 1    
   127   65   66 1    
   128   65   69 1    
   129   65  131 1    
   130   66   67 am   BACKBONE|DICT|INTERRES
   131   66   68 2    
   132   67  132 1    
   133   67  133 1    
   134   69   70 1    
   135   69  134 1    
   136   69  135 1    
   137   70   71 1    
   138   71  136 1    
   139   71  137 1    
@<TRIPOS>SUBSTRUCTURE
     1 UNK         1 GROUP             0       ****    0 ROOT    
