@<TRIPOS>MOLECULE
3R136
137   139    1
SMALL
USER_CHARGES


@<TRIPOS>ATOM
      1 CA         33.9924   28.7798   -2.7016 C.3       0 UNK        -0.1979 
      2 C          32.6909   28.4473   -1.9884 C.2       0 UNK         0.4864 
      3 O          32.0963   29.3307   -1.3689 O.2       0 UNK        -0.5359 
      4 N          32.2526   27.1823   -2.0618 N.am      1 UNK        -0.4318 
      5 CA         30.9961   26.6963   -1.4821 C.3       1 UNK         0.0824 
      6 C6         30.9556   25.1456   -1.4156 C.3       12 UNK        -0.0944 
      7 S7         30.0661   24.5530    0.0633 S.3       12 UNK        -0.2672 
      8 C8         31.4643   24.0547    1.1158 C.3       12 UNK         0.0333 
      9 C9         31.0298   23.8406    2.5569 C.ar      12 UNK        -0.0807 
     10 C10        31.1855   24.8674    3.4924 C.ar      12 UNK        -0.0894 
     11 C11        30.8081   24.6840    4.8243 C.ar      12 UNK        -0.0804 
     12 C12        30.2661   23.4580    5.2173 C.ar      12 UNK        -0.0824 
     13 C13        30.0681   22.4339    4.2849 C.ar      12 UNK        -0.0762 
     14 C14        30.4706   22.6229    2.9584 C.ar      12 UNK        -0.0782 
     15 C15        29.3699   21.1466    4.7065 C.3       12 UNK         0.0230 
     16 S16        27.6138   21.1154    4.1972 S.3       12 UNK        -0.2608 
     17 C17        26.9890   22.6941    4.8718 C.3       12 UNK        -0.0989 
     18 CA         26.9501   23.7859    3.7618 C.3       5 UNK         0.0716 
     19 N          25.7696   23.6858    2.8957 N.am      5 UNK        -0.4135 
     20 C          24.4986   23.9413    3.2404 C.2       4 UNK         0.5031 
     21 O          24.1436   24.2612    4.3766 O.2       4 UNK        -0.5229 
     22 CA         23.4431   23.7992    2.1221 C.3       4 UNK         0.0329 
     23 CB         22.1165   24.5131    2.4621 C.3       4 UNK        -0.2001 
     24 N          23.9183   24.2113    0.7923 N.am      4 UNK        -0.4303 
     25 C          24.3877   25.4179    0.4430 C.2       3 UNK         0.5044 
     26 O          24.5343   26.3641    1.2209 O.2       3 UNK        -0.5152 
     27 CA         24.7390   25.5999   -1.0369 C.3       3 UNK         0.0319 
     28 CB         23.4768   25.8884   -1.8717 C.3       3 UNK        -0.2001 
     29 N          25.6806   26.7076   -1.1476 N.am      3 UNK        -0.4354 
     30 C          26.5100   26.9361   -2.1698 C.2       2 UNK         0.4964 
     31 O          26.5539   26.2388   -3.1843 O.2       2 UNK        -0.5047 
     32 CA         27.4660   28.1300   -2.0342 C.3       2 UNK         0.0288 
     33 CB         26.9302   29.2595   -1.1291 C.3       2 UNK        -0.2113 
     34 N          28.7339   27.6445   -1.4993 N.am      2 UNK        -0.4145 
     35 C          29.7823   27.2701   -2.2414 C.2       1 UNK         0.5006 
     36 O          29.8205   27.3487   -3.4730 O.2       1 UNK        -0.5103 
     37 C          27.1612   25.2269    4.2773 C.2       5 UNK         0.5055 
     38 O          27.1621   25.4759    5.4850 O.2       5 UNK        -0.5220 
     39 N          27.3509   26.1463    3.3267 N.am      6 UNK        -0.4450 
     40 CA         27.7561   27.5307    3.5315 C.3       6 UNK         0.0367 
     41 CB         26.5157   28.4381    3.5628 C.3       6 UNK        -0.1929 
     42 C          28.6808   27.8969    2.3670 C.2       6 UNK         0.5070 
     43 O          28.5222   27.3438    1.2750 O.2       6 UNK        -0.5237 
     44 N          29.6202   28.8138    2.6025 N.am      7 UNK        -0.4739 
     45 CA         30.6268   29.2279    1.6276 C.3       7 UNK         0.0276 
     46 CB         31.9113   28.4133    1.8743 C.3       7 UNK        -0.1927 
     47 C          30.9129   30.7288    1.7218 C.2       7 UNK         0.5013 
     48 O          30.4751   31.3907    2.6667 O.2       7 UNK        -0.5193 
     49 N          31.6834   31.2262    0.7495 N.am      8 UNK        -0.4253 
     50 CA         32.3983   32.4974    0.8374 C.3       8 UNK         0.0242 
     51 CB         32.7096   32.9935   -0.5839 C.3       8 UNK        -0.2000 
     52 C          33.6981   32.2981    1.6372 C.2       8 UNK         0.4948 
     53 O          34.3005   31.2247    1.5560 O.2       8 UNK        -0.5275 
     54 N          34.1219   33.3437    2.3613 N.am      9 UNK        -0.4246 
     55 CA         35.2895   33.3762    3.2522 C.3       9 UNK         0.0261 
     56 CB         36.6101   33.2126    2.4624 C.3       9 UNK        -0.1959 
     57 C          35.1187   32.3988    4.4329 C.2       9 UNK         0.5033 
     58 O          34.1865   32.5864    5.2184 O.2       9 UNK        -0.5390 
     59 N          36.0059   31.4002    4.5588 N.am      10 UNK        -0.4215 
     60 CA         35.9906   30.3710    5.6046 C.3       10 UNK         0.0240 
     61 CB         37.2091   29.4482    5.4319 C.3       10 UNK        -0.1982 
     62 C          34.6774   29.5677    5.5915 C.2       10 UNK         0.4970 
     63 O          34.4010   28.8895    4.6020 O.2       10 UNK        -0.4916 
     64 N          33.8960   29.7161    6.6703 N.am      11 UNK        -0.4279 
     65 CA         32.4997   29.2701    6.8333 C.3       11 UNK         0.1003 
     66 C          31.5006   29.7881    5.7521 C.2       11 UNK         0.5709 
     67 N          31.7883   30.9038    5.0952 N.am      11 UNK        -0.7358 
     68 O          30.4400   29.2100    5.5277 O.2       11 UNK        -0.4999 
     69 C69        32.3528   27.7740    7.2475 C.3       12 UNK        -0.0954 
     70 S70        32.5975   26.5151    5.9459 S.3       12 UNK        -0.2268 
     71 C71        30.9145   25.8285    5.8229 C.3       12 UNK         0.0203 
     72 H72        34.4300   27.9052   -3.1826 H         1 UNK         0.0888 
     73 H73        33.8169   29.5365   -3.4657 H         1 UNK         0.0888 
     74 H74        34.7173   29.1751   -1.9904 H         1 UNK         0.0888 
     75 H75        32.7669   26.5139   -2.6170 H         1 UNK         0.3017 
     76 H76        30.9633   27.0833   -0.4646 H         1 UNK         0.0873 
     77 H77        30.4959   24.7114   -2.3061 H         1 UNK         0.0745 
     78 H78        31.9666   24.7355   -1.3891 H         1 UNK         0.0745 
     79 H79        31.9089   23.1410    0.7185 H         1 UNK         0.0705 
     80 H80        32.2413   24.8200    1.0735 H         1 UNK         0.0705 
     81 H81        31.6013   25.8165    3.1919 H         1 UNK         0.1334 
     82 H82        29.9522   23.3172    6.2426 H         1 UNK         0.1417 
     83 H83        30.3206   21.8345    2.2331 H         1 UNK         0.1562 
     84 H84        29.4296   21.0144    5.7880 H         1 UNK         0.0748 
     85 H85        29.8829   20.2901    4.2668 H         1 UNK         0.0748 
     86 H86        27.6178   22.9814    5.7144 H         1 UNK         0.0940 
     87 H87        25.9999   22.5324    5.3020 H         1 UNK         0.0940 
     88 H88        27.8013   23.6187    3.1006 H         1 UNK         0.0703 
     89 H89        25.9513   23.4214    1.9387 H         1 UNK         0.3081 
     90 H90        23.2296   22.7316    2.0510 H         1 UNK         0.0719 
     91 H91        22.2607   25.5845    2.6067 H         1 UNK         0.0809 
     92 H92        21.3784   24.3777    1.6717 H         1 UNK         0.0809 
     93 H93        21.6807   24.1169    3.3802 H         1 UNK         0.0809 
     94 H94        23.8471   23.5058    0.0713 H         1 UNK         0.2990 
     95 H95        25.2196   24.6868   -1.3952 H         1 UNK         0.0690 
     96 H96        23.7139   25.9959   -2.9302 H         1 UNK         0.0788 
     97 H97        22.9817   26.8041   -1.5456 H         1 UNK         0.0788 
     98 H98        22.7530   25.0770   -1.7856 H         1 UNK         0.0788 
     99 H99        25.7263   27.2905   -0.3200 H         1 UNK         0.2993 
    100 H100       27.6114   28.5463   -3.0335 H         1 UNK         0.0949 
    101 H101       25.9553   29.6077   -1.4732 H         1 UNK         0.0767 
    102 H102       26.8240   28.9501   -0.0890 H         1 UNK         0.0767 
    103 H103       27.6014   30.1184   -1.1443 H         1 UNK         0.0767 
    104 H104       28.7538   27.4820   -0.4914 H         1 UNK         0.3013 
    105 H105       27.3755   25.8660    2.3536 H         1 UNK         0.3121 
    106 H106       28.3091   27.6256    4.4682 H         1 UNK         0.0774 
    107 H107       26.7986   29.4807    3.7121 H         1 UNK         0.0815 
    108 H108       25.9519   28.3796    2.6307 H         1 UNK         0.0815 
    109 H109       25.8449   28.1614    4.3762 H         1 UNK         0.0815 
    110 H110       29.6928   29.2475    3.5180 H         1 UNK         0.2987 
    111 H111       30.2642   29.0481    0.6144 H         1 UNK         0.0949 
    112 H112       32.7348   28.7480    1.2427 H         1 UNK         0.0806 
    113 H113       32.2467   28.4977    2.9089 H         1 UNK         0.0806 
    114 H114       31.7560   27.3598    1.6554 H         1 UNK         0.0806 
    115 H115       31.9855   30.5916    0.0116 H         1 UNK         0.3010 
    116 H116       31.7698   33.2345    1.3421 H         1 UNK         0.0829 
    117 H117       31.7962   33.1411   -1.1605 H         1 UNK         0.0813 
    118 H118       33.2369   33.9480   -0.5597 H         1 UNK         0.0813 
    119 H119       33.3372   32.2860   -1.1282 H         1 UNK         0.0813 
    120 H120       33.5481   34.1758    2.3758 H         1 UNK         0.3038 
    121 H121       35.3038   34.3732    3.6952 H         1 UNK         0.0769 
    122 H122       36.6908   32.2416    1.9732 H         1 UNK         0.0811 
    123 H123       37.4761   33.3286    3.1156 H         1 UNK         0.0811 
    124 H124       36.6952   33.9747    1.6877 H         1 UNK         0.0811 
    125 H125       36.7043   31.2985    3.8374 H         1 UNK         0.3204 
    126 H126       36.0875   30.8796    6.5660 H         1 UNK         0.0748 
    127 H127       38.1438   30.0039    5.5095 H         1 UNK         0.0771 
    128 H128       37.2258   28.6775    6.2038 H         1 UNK         0.0771 
    129 H129       37.1981   28.9408    4.4661 H         1 UNK         0.0771 
    130 H130       34.2286   30.3215    7.4065 H         1 UNK         0.2980 
    131 H131       32.1784   29.8242    7.7158 H         1 UNK         0.0545 
    132 H132       31.1663   31.2129    4.3543 H         1 UNK         0.3459 
    133 H133       32.6509   31.4104    5.2672 H         1 UNK         0.3459 
    134 H134       33.0610   27.5528    8.0471 H         1 UNK         0.0616 
    135 H135       31.3691   27.6269    7.6962 H         1 UNK         0.0616 
    136 H136       30.5968   25.5008    6.8139 H         1 UNK         0.0634 
    137 H137       30.2236   26.6146    5.5212 H         1 UNK         0.0634 
@<TRIPOS>BOND
     1    1    2 1    
     2    1   72 1    
     3    1   73 1    
     4    1   74 1    
     5    2    3 2    
     6    2    4 am   BACKBONE|DICT|INTERRES
     7    4    5 1    
     8    4   75 1    
     9    5    6 1    
    10    5   35 1    
    11    5   76 1    
    12    6    7 1    
    13    6   77 1    
    14    6   78 1    
    15    7    8 1    
    16    8    9 1    
    17    8   79 1    
    18    8   80 1    
    19    9   10 ar   
    20    9   14 ar   
    21   10   11 ar   
    22   10   81 1    
    23   11   12 ar   
    24   11   71 1    
    25   12   13 ar   
    26   12   82 1    
    27   13   14 ar   
    28   13   15 1    
    29   14   83 1    
    30   15   16 1    
    31   15   84 1    
    32   15   85 1    
    33   16   17 1    
    34   17   18 1    
    35   17   86 1    
    36   17   87 1    
    37   18   19 1    
    38   18   37 1    
    39   18   88 1    
    40   19   20 am   BACKBONE|DICT|INTERRES
    41   19   89 1    
    42   20   21 2    
    43   20   22 1    
    44   22   23 1    
    45   22   24 1    
    46   22   90 1    
    47   23   91 1    
    48   23   92 1    
    49   23   93 1    
    50   24   25 am   BACKBONE|DICT|INTERRES
    51   24   94 1    
    52   25   26 2    
    53   25   27 1    
    54   27   28 1    
    55   27   29 1    
    56   27   95 1    
    57   28   96 1    
    58   28   97 1    
    59   28   98 1    
    60   29   30 am   BACKBONE|DICT|INTERRES
    61   29   99 1    
    62   30   31 2    
    63   30   32 1    
    64   32   33 1    
    65   32   34 1    
    66   32  100 1    
    67   33  101 1    
    68   33  102 1    
    69   33  103 1    
    70   34   35 am   BACKBONE|DICT|INTERRES
    71   34  104 1    
    72   35   36 2    
    73   37   38 2    
    74   37   39 am   BACKBONE|DICT|INTERRES
    75   39   40 1    
    76   39  105 1    
    77   40   41 1    
    78   40   42 1    
    79   40  106 1    
    80   41  107 1    
    81   41  108 1    
    82   41  109 1    
    83   42   43 2    
    84   42   44 am   BACKBONE|DICT|INTERRES
    85   44   45 1    
    86   44  110 1    
    87   45   46 1    
    88   45   47 1    
    89   45  111 1    
    90   46  112 1    
    91   46  113 1    
    92   46  114 1    
    93   47   48 2    
    94   47   49 am   BACKBONE|DICT|INTERRES
    95   49   50 1    
    96   49  115 1    
    97   50   51 1    
    98   50   52 1    
    99   50  116 1    
   100   51  117 1    
   101   51  118 1    
   102   51  119 1    
   103   52   53 2    
   104   52   54 am   BACKBONE|DICT|INTERRES
   105   54   55 1    
   106   54  120 1    
   107   55   56 1    
   108   55   57 1    
   109   55  121 1    
   110   56  122 1    
   111   56  123 1    
   112   56  124 1    
   113   57   58 2    
   114   57   59 am   BACKBONE|DICT|INTERRES
   115   59   60 1    
   116   59  125 1    
   117   60   61 1    
   118   60   62 1    
   119   60  126 1    
   120   61  127 1    
   121   61  128 1    
   122   61  129 1    
   123   62   63 2    
   124   62   64 am   BACKBONE|DICT|INTERRES
   125   64   65 1    
   126   64  130 1    
   127   65   66 1    
   128   65   69 1    
   129   65  131 1    
   130   66   67 am   BACKBONE|DICT|INTERRES
   131   66   68 2    
   132   67  132 1    
   133   67  133 1    
   134   69   70 1    
   135   69  134 1    
   136   69  135 1    
   137   70   71 1    
   138   71  136 1    
   139   71  137 1    
@<TRIPOS>SUBSTRUCTURE
     1 UNK         1 GROUP             0       ****    0 ROOT    
