@<TRIPOS>MOLECULE
3R136
137   139    1
SMALL
USER_CHARGES


@<TRIPOS>ATOM
      1 CA         27.7442   21.1879    0.4200 C.3       0 UNK        -0.1979 
      2 C          28.1786   21.7692   -0.9176 C.2       0 UNK         0.4864 
      3 O          27.4300   21.6902   -1.8922 O.2       0 UNK        -0.5359 
      4 N          29.3801   22.3604   -0.9704 N.am      1 UNK        -0.4318 
      5 CA         29.9355   23.0440   -2.1475 C.3       1 UNK         0.0824 
      6 C6         31.4763   23.1973   -2.0465 C.3       12 UNK        -0.0944 
      7 S7         32.0236   24.1085   -0.5590 S.3       12 UNK        -0.2672 
      8 C8         32.7140   22.7785    0.4713 C.3       12 UNK         0.0333 
      9 C9         32.5047   23.0864    1.9446 C.ar      12 UNK        -0.0807 
     10 C10        33.4169   23.8874    2.6382 C.ar      12 UNK        -0.0894 
     11 C11        33.2187   24.1819    3.9912 C.ar      12 UNK        -0.0804 
     12 C12        32.0943   23.6674    4.6478 C.ar      12 UNK        -0.0824 
     13 C13        31.1777   22.8588    3.9649 C.ar      12 UNK        -0.0762 
     14 C14        31.3931   22.5691    2.6156 C.ar      12 UNK        -0.0782 
     15 C15        29.9687   22.2713    4.6863 C.3       12 UNK         0.0230 
     16 S16        28.3823   22.9331    4.0706 S.3       12 UNK        -0.2608 
     17 C17        28.5043   24.6814    4.5702 C.3       12 UNK        -0.0989 
     18 CA         28.0178   25.6419    3.4455 C.3       5 UNK         0.0716 
     19 N          26.5641   25.6233    3.2494 N.am      5 UNK        -0.4135 
     20 C          25.6331   26.0353    4.1262 C.2       4 UNK         0.5031 
     21 O          25.8931   26.4104    5.2708 O.2       4 UNK        -0.5229 
     22 CA         24.1644   26.0545    3.6433 C.3       4 UNK         0.0329 
     23 CB         23.3357   27.1557    4.3395 C.3       4 UNK        -0.2001 
     24 N          24.0090   26.1500    2.1846 N.am      4 UNK        -0.4303 
     25 C          24.5014   27.1051    1.3827 C.2       3 UNK         0.5044 
     26 O          25.1622   28.0705    1.7716 O.2       3 UNK        -0.5152 
     27 CA         24.2797   26.9015   -0.1242 C.3       3 UNK         0.0319 
     28 CB         23.3900   28.0159   -0.6983 C.3       3 UNK        -0.2001 
     29 N          25.5476   26.8630   -0.8585 N.am      3 UNK        -0.4354 
     30 C          26.5651   26.0271   -0.6086 C.2       2 UNK         0.4964 
     31 O          26.5594   25.1682    0.2808 O.2       2 UNK        -0.5047 
     32 CA         27.8108   26.2030   -1.4816 C.3       2 UNK         0.0288 
     33 CB         28.6799   27.3603   -0.9638 C.3       2 UNK        -0.2113 
     34 N          28.5799   24.9675   -1.4270 N.am      2 UNK        -0.4145 
     35 C          29.2471   24.3989   -2.4376 C.2       1 UNK         0.5006 
     36 O          29.3351   24.8939   -3.5632 O.2       1 UNK        -0.5103 
     37 C          28.5864   27.0724    3.5959 C.2       5 UNK         0.5055 
     38 O          29.6662   27.2258    4.1604 O.2       5 UNK        -0.5220 
     39 N          27.9180   28.1042    3.0563 N.am      6 UNK        -0.4450 
     40 CA         28.3812   29.4994    3.0978 C.3       6 UNK         0.0367 
     41 CB         27.1631   30.4341    2.9848 C.3       6 UNK        -0.1929 
     42 C          29.4587   29.8090    2.0337 C.2       6 UNK         0.5070 
     43 O          29.4010   30.8595    1.3905 O.2       6 UNK        -0.5237 
     44 N          30.4139   28.8881    1.8415 N.am      7 UNK        -0.4739 
     45 CA         31.4549   28.9355    0.8118 C.3       7 UNK         0.0276 
     46 CB         32.2595   27.6271    0.8210 C.3       7 UNK        -0.1927 
     47 C          32.3633   30.1599    0.9857 C.2       7 UNK         0.5013 
     48 O          33.0322   30.2835    2.0169 O.2       7 UNK        -0.5193 
     49 N          32.2910   31.0744    0.0050 N.am      8 UNK        -0.4253 
     50 CA         32.9417   32.3926   -0.0549 C.3       8 UNK         0.0242 
     51 CB         34.4682   32.2207   -0.2093 C.3       8 UNK        -0.2000 
     52 C          32.5890   33.3321    1.1199 C.2       8 UNK         0.4948 
     53 O          33.3126   34.3021    1.3491 O.2       8 UNK        -0.5275 
     54 N          31.5280   33.0001    1.8762 N.am      9 UNK        -0.4246 
     55 CA         31.1829   33.5213    3.2061 C.3       9 UNK         0.0261 
     56 CB         30.7398   34.9971    3.1220 C.3       9 UNK        -0.1959 
     57 C          32.2821   33.2914    4.2723 C.2       9 UNK         0.5033 
     58 O          32.2567   33.9496    5.3140 O.2       9 UNK        -0.5390 
     59 N          33.2228   32.3738    4.0042 N.am      10 UNK        -0.4215 
     60 CA         34.3401   32.0239    4.8784 C.3       10 UNK         0.0240 
     61 CB         35.5957   31.7688    4.0269 C.3       10 UNK        -0.1982 
     62 C          33.9882   30.7935    5.7202 C.2       10 UNK         0.4970 
     63 O          34.1935   30.8141    6.9346 O.2       10 UNK        -0.4916 
     64 N          33.4449   29.7584    5.0674 N.am      11 UNK        -0.4279 
     65 CA         32.8620   28.5841    5.7289 C.3       11 UNK         0.1003 
     66 C          31.5092   28.9234    6.4176 C.2       11 UNK         0.5709 
     67 N          31.1293   28.1640    7.4369 N.am      11 UNK        -0.7358 
     68 O          30.7993   29.8536    6.0361 O.2       11 UNK        -0.4999 
     69 C69        32.7105   27.4021    4.7415 C.3       12 UNK        -0.0954 
     70 S70        34.3106   26.7478    4.1648 S.3       12 UNK        -0.2268 
     71 C71        34.2405   25.0231    4.7499 C.3       12 UNK         0.0203 
     72 H72        26.8680   21.7198    0.7906 H         1 UNK         0.0888 
     73 H73        27.4831   20.1361    0.3065 H         1 UNK         0.0888 
     74 H74        28.5267   21.2624    1.1741 H         1 UNK         0.0888 
     75 H75        29.9540   22.4068   -0.1419 H         1 UNK         0.3017 
     76 H76        29.7318   22.4133   -3.0157 H         1 UNK         0.0873 
     77 H77        31.9454   22.2126   -2.0655 H         1 UNK         0.0745 
     78 H78        31.8660   23.7144   -2.9256 H         1 UNK         0.0745 
     79 H79        32.2477   21.8236    0.2245 H         1 UNK         0.0705 
     80 H80        33.7771   22.6670    0.2523 H         1 UNK         0.0705 
     81 H81        34.2807   24.2870    2.1242 H         1 UNK         0.1334 
     82 H82        31.9385   23.8877    5.6950 H         1 UNK         0.1417 
     83 H83        30.6889   21.9394    2.0913 H         1 UNK         0.1562 
     84 H84        30.0337   22.4469    5.7613 H         1 UNK         0.0748 
     85 H85        29.9701   21.1883    4.5556 H         1 UNK         0.0748 
     86 H86        29.5431   24.8785    4.8341 H         1 UNK         0.0940 
     87 H87        27.9436   24.8295    5.4934 H         1 UNK         0.0940 
     88 H88        28.4436   25.2869    2.5054 H         1 UNK         0.0703 
     89 H89        26.2658   25.3458    2.3199 H         1 UNK         0.3081 
     90 H90        23.7433   25.0905    3.9324 H         1 UNK         0.0719 
     91 H91        23.7433   28.1489    4.1472 H         1 UNK         0.0809 
     92 H92        22.2996   27.1471    4.0013 H         1 UNK         0.0809 
     93 H93        23.3214   27.0141    5.4209 H         1 UNK         0.0809 
     94 H94        23.5141   25.3810    1.7532 H         1 UNK         0.2990 
     95 H95        23.7782   25.9452   -0.2862 H         1 UNK         0.0690 
     96 H96        23.1778   27.8520   -1.7550 H         1 UNK         0.0788 
     97 H97        23.8564   28.9969   -0.5965 H         1 UNK         0.0788 
     98 H98        22.4315   28.0561   -0.1789 H         1 UNK         0.0788 
     99 H99        25.6612   27.5570   -1.5829 H         1 UNK         0.2993 
    100 H100       27.4936   26.4022   -2.5077 H         1 UNK         0.0949 
    101 H101       28.1365   28.3060   -0.9788 H         1 UNK         0.0767 
    102 H102       29.0028   27.1839    0.0627 H         1 UNK         0.0767 
    103 H103       29.5716   27.4865   -1.5780 H         1 UNK         0.0767 
    104 H104       28.4866   24.4581   -0.5584 H         1 UNK         0.3013 
    105 H105       27.0314   27.9390    2.5884 H         1 UNK         0.3121 
    106 H106       28.8415   29.6848    4.0706 H         1 UNK         0.0774 
    107 H107       26.6823   30.3497    2.0094 H         1 UNK         0.0815 
    108 H108       27.4545   31.4769    3.1167 H         1 UNK         0.0815 
    109 H109       26.4165   30.2080    3.7463 H         1 UNK         0.0815 
    110 H110       30.4274   28.0993    2.4784 H         1 UNK         0.2987 
    111 H111       30.9483   29.0058   -0.1523 H         1 UNK         0.0949 
    112 H112       32.8880   27.5380    1.7052 H         1 UNK         0.0806 
    113 H113       31.6055   26.7560    0.7862 H         1 UNK         0.0806 
    114 H114       32.9191   27.5718   -0.0457 H         1 UNK         0.0806 
    115 H115       31.6659   30.8794   -0.7653 H         1 UNK         0.3010 
    116 H116       32.5663   32.8815   -0.9551 H         1 UNK         0.0829 
    117 H117       34.9198   31.7972    0.6886 H         1 UNK         0.0813 
    118 H118       34.7117   31.5673   -1.0469 H         1 UNK         0.0813 
    119 H119       34.9561   33.1780   -0.3971 H         1 UNK         0.0813 
    120 H120       30.9663   32.2091    1.5738 H         1 UNK         0.3038 
    121 H121       30.3227   32.9377    3.5379 H         1 UNK         0.0769 
    122 H122       31.5703   35.6557    2.8665 H         1 UNK         0.0811 
    123 H123       30.3367   35.3401    4.0755 H         1 UNK         0.0811 
    124 H124       29.9590   35.1348    2.3742 H         1 UNK         0.0811 
    125 H125       33.1367   31.8269    3.1512 H         1 UNK         0.3204 
    126 H126       34.5545   32.8523    5.5570 H         1 UNK         0.0748 
    127 H127       36.4488   31.5139    4.6571 H         1 UNK         0.0771 
    128 H128       35.4526   30.9482    3.3223 H         1 UNK         0.0771 
    129 H129       35.8685   32.6549    3.4532 H         1 UNK         0.0771 
    130 H130       33.3028   29.8233    4.0664 H         1 UNK         0.2980 
    131 H131       33.5510   28.2735    6.5172 H         1 UNK         0.0545 
    132 H132       30.2510   28.3616    7.8891 H         1 UNK         0.3459 
    133 H133       31.6972   27.3961    7.7575 H         1 UNK         0.3459 
    134 H134       32.1398   26.5910    5.1964 H         1 UNK         0.0616 
    135 H135       32.1434   27.7183    3.8676 H         1 UNK         0.0616 
    136 H136       35.2270   24.5745    4.6257 H         1 UNK         0.0634 
    137 H137       34.0362   25.0174    5.8216 H         1 UNK         0.0634 
@<TRIPOS>BOND
     1    1    2 1    
     2    1   72 1    
     3    1   73 1    
     4    1   74 1    
     5    2    3 2    
     6    2    4 am   BACKBONE|DICT|INTERRES
     7    4    5 1    
     8    4   75 1    
     9    5    6 1    
    10    5   35 1    
    11    5   76 1    
    12    6    7 1    
    13    6   77 1    
    14    6   78 1    
    15    7    8 1    
    16    8    9 1    
    17    8   79 1    
    18    8   80 1    
    19    9   10 ar   
    20    9   14 ar   
    21   10   11 ar   
    22   10   81 1    
    23   11   12 ar   
    24   11   71 1    
    25   12   13 ar   
    26   12   82 1    
    27   13   14 ar   
    28   13   15 1    
    29   14   83 1    
    30   15   16 1    
    31   15   84 1    
    32   15   85 1    
    33   16   17 1    
    34   17   18 1    
    35   17   86 1    
    36   17   87 1    
    37   18   19 1    
    38   18   37 1    
    39   18   88 1    
    40   19   20 am   BACKBONE|DICT|INTERRES
    41   19   89 1    
    42   20   21 2    
    43   20   22 1    
    44   22   23 1    
    45   22   24 1    
    46   22   90 1    
    47   23   91 1    
    48   23   92 1    
    49   23   93 1    
    50   24   25 am   BACKBONE|DICT|INTERRES
    51   24   94 1    
    52   25   26 2    
    53   25   27 1    
    54   27   28 1    
    55   27   29 1    
    56   27   95 1    
    57   28   96 1    
    58   28   97 1    
    59   28   98 1    
    60   29   30 am   BACKBONE|DICT|INTERRES
    61   29   99 1    
    62   30   31 2    
    63   30   32 1    
    64   32   33 1    
    65   32   34 1    
    66   32  100 1    
    67   33  101 1    
    68   33  102 1    
    69   33  103 1    
    70   34   35 am   BACKBONE|DICT|INTERRES
    71   34  104 1    
    72   35   36 2    
    73   37   38 2    
    74   37   39 am   BACKBONE|DICT|INTERRES
    75   39   40 1    
    76   39  105 1    
    77   40   41 1    
    78   40   42 1    
    79   40  106 1    
    80   41  107 1    
    81   41  108 1    
    82   41  109 1    
    83   42   43 2    
    84   42   44 am   BACKBONE|DICT|INTERRES
    85   44   45 1    
    86   44  110 1    
    87   45   46 1    
    88   45   47 1    
    89   45  111 1    
    90   46  112 1    
    91   46  113 1    
    92   46  114 1    
    93   47   48 2    
    94   47   49 am   BACKBONE|DICT|INTERRES
    95   49   50 1    
    96   49  115 1    
    97   50   51 1    
    98   50   52 1    
    99   50  116 1    
   100   51  117 1    
   101   51  118 1    
   102   51  119 1    
   103   52   53 2    
   104   52   54 am   BACKBONE|DICT|INTERRES
   105   54   55 1    
   106   54  120 1    
   107   55   56 1    
   108   55   57 1    
   109   55  121 1    
   110   56  122 1    
   111   56  123 1    
   112   56  124 1    
   113   57   58 2    
   114   57   59 am   BACKBONE|DICT|INTERRES
   115   59   60 1    
   116   59  125 1    
   117   60   61 1    
   118   60   62 1    
   119   60  126 1    
   120   61  127 1    
   121   61  128 1    
   122   61  129 1    
   123   62   63 2    
   124   62   64 am   BACKBONE|DICT|INTERRES
   125   64   65 1    
   126   64  130 1    
   127   65   66 1    
   128   65   69 1    
   129   65  131 1    
   130   66   67 am   BACKBONE|DICT|INTERRES
   131   66   68 2    
   132   67  132 1    
   133   67  133 1    
   134   69   70 1    
   135   69  134 1    
   136   69  135 1    
   137   70   71 1    
   138   71  136 1    
   139   71  137 1    
@<TRIPOS>SUBSTRUCTURE
     1 UNK         1 GROUP             0       ****    0 ROOT    
