@<TRIPOS>MOLECULE
3R136
137   139    1
SMALL
USER_CHARGES


@<TRIPOS>ATOM
      1 CA         32.7329   23.3222   -0.6803 C.3       0 UNK        -0.1979 
      2 C          31.3023   23.5102   -0.2008 C.2       0 UNK         0.4864 
      3 O          30.6463   24.4689   -0.6071 O.2       0 UNK        -0.5359 
      4 N          30.8108   22.5939    0.6469 N.am      1 UNK        -0.4318 
      5 CA         29.5083   22.6316    1.3344 C.3       1 UNK         0.0824 
      6 C6         29.2591   21.3576    2.1881 C.3       12 UNK        -0.0944 
      7 S7         30.7110   20.7630    3.1280 S.3       12 UNK        -0.2672 
      8 C8         30.3417   21.2872    4.8306 C.3       12 UNK         0.0333 
      9 C9         30.8032   22.7128    5.0867 C.ar      12 UNK        -0.0807 
     10 C10        32.1537   22.9734    5.3407 C.ar      12 UNK        -0.0894 
     11 C11        32.5937   24.2785    5.5799 C.ar      12 UNK        -0.0804 
     12 C12        31.6692   25.3269    5.5748 C.ar      12 UNK        -0.0824 
     13 C13        30.3160   25.0762    5.3270 C.ar      12 UNK        -0.0762 
     14 C14        29.8872   23.7682    5.0816 C.ar      12 UNK        -0.0782 
     15 C15        29.3225   26.2233    5.2936 C.3       12 UNK         0.0230 
     16 S16        29.1925   26.8534    3.6009 S.3       12 UNK        -0.2608 
     17 C17        28.1514   28.3280    3.8359 C.3       12 UNK        -0.0989 
     18 CA         27.8821   29.0127    2.4707 C.3       5 UNK         0.0716 
     19 N          27.1657   28.1379    1.5358 N.am      5 UNK        -0.4135 
     20 C          25.9011   27.7066    1.6424 C.2       4 UNK         0.5031 
     21 O          25.1198   28.0827    2.5176 O.2       4 UNK        -0.5229 
     22 CA         25.4292   26.6379    0.6371 C.3       4 UNK         0.0329 
     23 CB         24.0877   27.0196   -0.0238 C.3       4 UNK        -0.2001 
     24 N          26.4290   26.2419   -0.3665 N.am      4 UNK        -0.4303 
     25 C          26.9000   26.9605   -1.3996 C.2       3 UNK         0.5044 
     26 O          26.5899   28.1335   -1.6088 O.2       3 UNK        -0.5152 
     27 CA         27.9136   26.2813   -2.3448 C.3       3 UNK         0.0319 
     28 CB         29.2825   26.9758   -2.2590 C.3       3 UNK        -0.2001 
     29 N          28.0861   24.8465   -2.0909 N.am      3 UNK        -0.4354 
     30 C          27.1782   23.9074   -2.4031 C.2       2 UNK         0.4964 
     31 O          26.1439   24.1486   -3.0264 O.2       2 UNK        -0.5047 
     32 CA         27.4320   22.4630   -1.9277 C.3       2 UNK         0.0288 
     33 CB         27.8811   21.5824   -3.1056 C.3       2 UNK        -0.2113 
     34 N          28.4076   22.3331   -0.8418 N.am      2 UNK        -0.4145 
     35 C          28.3050   22.8592    0.3891 C.2       1 UNK         0.5006 
     36 O          27.3373   23.5199    0.7718 O.2       1 UNK        -0.5103 
     37 C          27.2352   30.4076    2.5958 C.2       5 UNK         0.5055 
     38 O          27.1089   30.9402    3.6999 O.2       5 UNK        -0.5220 
     39 N          26.8679   30.9928    1.4450 N.am      6 UNK        -0.4450 
     40 CA         26.3401   32.3577    1.3339 C.3       6 UNK         0.0367 
     41 CB         25.8556   32.6027   -0.1038 C.3       6 UNK        -0.1929 
     42 C          27.3580   33.4354    1.7544 C.2       6 UNK         0.5070 
     43 O          26.9614   34.4699    2.2896 O.2       6 UNK        -0.5237 
     44 N          28.6526   33.1530    1.5541 N.am      7 UNK        -0.4739 
     45 CA         29.7858   33.9721    1.9934 C.3       7 UNK         0.0276 
     46 CB         30.9010   33.8798    0.9344 C.3       7 UNK        -0.1927 
     47 C          30.2739   33.5563    3.3972 C.2       7 UNK         0.5013 
     48 O          31.4811   33.4641    3.6234 O.2       7 UNK        -0.5193 
     49 N          29.3290   33.2759    4.3064 N.am      8 UNK        -0.4253 
     50 CA         29.4772   32.8242    5.6988 C.3       8 UNK         0.0242 
     51 CB         30.2728   33.8338    6.5497 C.3       8 UNK        -0.2000 
     52 C          30.0347   31.3976    5.8585 C.2       8 UNK         0.4948 
     53 O          29.4873   30.6303    6.6512 O.2       8 UNK        -0.5275 
     54 N          31.0888   31.0546    5.1122 N.am      9 UNK        -0.4246 
     55 CA         31.6978   29.7309    5.0673 C.3       9 UNK         0.0261 
     56 CB         32.7074   29.5596    6.2173 C.3       9 UNK        -0.1959 
     57 C          32.3731   29.5627    3.7065 C.2       9 UNK         0.5033 
     58 O          33.2638   30.3472    3.3747 O.2       9 UNK        -0.5390 
     59 N          31.9717   28.5276    2.9567 N.am      10 UNK        -0.4215 
     60 CA         32.5377   28.1746    1.6488 C.3       10 UNK         0.0240 
     61 CB         31.6933   27.0577    1.0203 C.3       10 UNK        -0.1982 
     62 C          34.0198   27.7598    1.7031 C.2       10 UNK         0.4970 
     63 O          34.7188   27.8882    0.6976 O.2       10 UNK        -0.4916 
     64 N          34.4707   27.2944    2.8747 N.am      11 UNK        -0.4279 
     65 CA         35.8757   26.9978    3.1847 C.3       11 UNK         0.1003 
     66 C          36.7830   28.2584    3.3160 C.2       11 UNK         0.5709 
     67 N          36.2470   29.4736    3.3770 N.am      11 UNK        -0.7358 
     68 O          38.0042   28.1288    3.3583 O.2       11 UNK        -0.4999 
     69 C69        36.0078   26.0919    4.4385 C.3       12 UNK        -0.0954 
     70 S70        35.0340   24.5506    4.3082 S.3       12 UNK        -0.2268 
     71 C71        34.0649   24.5515    5.8522 C.3       12 UNK         0.0203 
     72 H72        32.7556   23.2333   -1.7660 H         1 UNK         0.0888 
     73 H73        33.3364   24.1837   -0.3955 H         1 UNK         0.0888 
     74 H74        33.1922   22.4301   -0.2549 H         1 UNK         0.0888 
     75 H75        31.4074   21.8333    0.9426 H         1 UNK         0.3017 
     76 H76        29.5476   23.4896    2.0090 H         1 UNK         0.0873 
     77 H77        28.9546   20.5269    1.5478 H         1 UNK         0.0745 
     78 H78        28.4242   21.5228    2.8715 H         1 UNK         0.0745 
     79 H79        29.2774   21.1724    5.0412 H         1 UNK         0.0705 
     80 H80        30.8572   20.6160    5.5192 H         1 UNK         0.0705 
     81 H81        32.8661   22.1594    5.3417 H         1 UNK         0.1334 
     82 H82        32.0020   26.3384    5.7597 H         1 UNK         0.1417 
     83 H83        28.8425   23.5750    4.8787 H         1 UNK         0.1562 
     84 H84        29.6373   27.0211    5.9681 H         1 UNK         0.0748 
     85 H85        28.3414   25.8918    5.6375 H         1 UNK         0.0748 
     86 H86        28.6612   29.0057    4.5211 H         1 UNK         0.0940 
     87 H87        27.2175   28.0441    4.3242 H         1 UNK         0.0940 
     88 H88        28.8535   29.2035    2.0109 H         1 UNK         0.0703 
     89 H89        27.7141   27.7624    0.7770 H         1 UNK         0.3081 
     90 H90        25.2529   25.7398    1.2310 H         1 UNK         0.0719 
     91 H91        23.7495   26.2447   -0.7117 H         1 UNK         0.0809 
     92 H92        24.1575   27.9556   -0.5786 H         1 UNK         0.0809 
     93 H93        23.3059   27.1486    0.7258 H         1 UNK         0.0809 
     94 H94        26.7923   25.3019   -0.2454 H         1 UNK         0.2990 
     95 H95        27.5364   26.4054   -3.3619 H         1 UNK         0.0690 
     96 H96        29.9996   26.5271   -2.9466 H         1 UNK         0.0788 
     97 H97        29.7010   26.9141   -1.2550 H         1 UNK         0.0788 
     98 H98        29.2048   28.0330   -2.5163 H         1 UNK         0.0788 
     99 H99        28.9249   24.5790   -1.5808 H         1 UNK         0.2993 
    100 H100       26.4789   22.0807   -1.5560 H         1 UNK         0.0949 
    101 H101       27.1602   21.6249   -3.9236 H         1 UNK         0.0767 
    102 H102       28.8449   21.9030   -3.5036 H         1 UNK         0.0767 
    103 H103       27.9692   20.5367   -2.8098 H         1 UNK         0.0767 
    104 H104       29.2541   21.8278   -1.0599 H         1 UNK         0.3013 
    105 H105       26.9763   30.4743    0.5842 H         1 UNK         0.3121 
    106 H106       25.4811   32.4384    2.0037 H         1 UNK         0.0774 
    107 H107       25.4325   33.6030   -0.2069 H         1 UNK         0.0815 
    108 H108       26.6686   32.5171   -0.8259 H         1 UNK         0.0815 
    109 H109       25.0777   31.8934   -0.3873 H         1 UNK         0.0815 
    110 H110       28.8809   32.2689    1.1233 H         1 UNK         0.2987 
    111 H111       29.4773   35.0178    2.0620 H         1 UNK         0.0949 
    112 H112       31.2938   32.8658    0.8482 H         1 UNK         0.0806 
    113 H113       30.5418   34.1864   -0.0481 H         1 UNK         0.0806 
    114 H114       31.7373   34.5329    1.1878 H         1 UNK         0.0806 
    115 H115       28.3705   33.3369    3.9880 H         1 UNK         0.3010 
    116 H116       28.4610   32.7986    6.0963 H         1 UNK         0.0829 
    117 H117       29.8345   34.8302    6.4959 H         1 UNK         0.0813 
    118 H118       30.2759   33.5372    7.5994 H         1 UNK         0.0813 
    119 H119       31.3138   33.9072    6.2338 H         1 UNK         0.0813 
    120 H120       31.4876   31.7538    4.4871 H         1 UNK         0.3038 
    121 H121       30.9214   28.9727    5.1741 H         1 UNK         0.0769 
    122 H122       33.1998   28.5878    6.1682 H         1 UNK         0.0811 
    123 H123       32.2168   29.6256    7.1886 H         1 UNK         0.0811 
    124 H124       33.4866   30.3223    6.1847 H         1 UNK         0.0811 
    125 H125       31.2211   27.9348    3.2900 H         1 UNK         0.3204 
    126 H126       32.4708   29.0571    1.0090 H         1 UNK         0.0748 
    127 H127       32.0656   26.7964    0.0286 H         1 UNK         0.0771 
    128 H128       31.7086   26.1490    1.6239 H         1 UNK         0.0771 
    129 H129       30.6539   27.3626    0.9032 H         1 UNK         0.0771 
    130 H130       33.8206   27.1968    3.6376 H         1 UNK         0.2980 
    131 H131       36.2742   26.4355    2.3381 H         1 UNK         0.0545 
    132 H132       35.2448   29.6133    3.3333 H         1 UNK         0.3459 
    133 H133       36.8569   30.2713    3.4584 H         1 UNK         0.3459 
    134 H134       35.7203   26.6487    5.3311 H         1 UNK         0.0616 
    135 H135       37.0498   25.8035    4.5884 H         1 UNK         0.0616 
    136 H136       34.4643   23.7844    6.5171 H         1 UNK         0.0634 
    137 H137       34.1727   25.4960    6.3859 H         1 UNK         0.0634 
@<TRIPOS>BOND
     1    1    2 1    
     2    1   72 1    
     3    1   73 1    
     4    1   74 1    
     5    2    3 2    
     6    2    4 am   BACKBONE|DICT|INTERRES
     7    4    5 1    
     8    4   75 1    
     9    5    6 1    
    10    5   35 1    
    11    5   76 1    
    12    6    7 1    
    13    6   77 1    
    14    6   78 1    
    15    7    8 1    
    16    8    9 1    
    17    8   79 1    
    18    8   80 1    
    19    9   10 ar   
    20    9   14 ar   
    21   10   11 ar   
    22   10   81 1    
    23   11   12 ar   
    24   11   71 1    
    25   12   13 ar   
    26   12   82 1    
    27   13   14 ar   
    28   13   15 1    
    29   14   83 1    
    30   15   16 1    
    31   15   84 1    
    32   15   85 1    
    33   16   17 1    
    34   17   18 1    
    35   17   86 1    
    36   17   87 1    
    37   18   19 1    
    38   18   37 1    
    39   18   88 1    
    40   19   20 am   BACKBONE|DICT|INTERRES
    41   19   89 1    
    42   20   21 2    
    43   20   22 1    
    44   22   23 1    
    45   22   24 1    
    46   22   90 1    
    47   23   91 1    
    48   23   92 1    
    49   23   93 1    
    50   24   25 am   BACKBONE|DICT|INTERRES
    51   24   94 1    
    52   25   26 2    
    53   25   27 1    
    54   27   28 1    
    55   27   29 1    
    56   27   95 1    
    57   28   96 1    
    58   28   97 1    
    59   28   98 1    
    60   29   30 am   BACKBONE|DICT|INTERRES
    61   29   99 1    
    62   30   31 2    
    63   30   32 1    
    64   32   33 1    
    65   32   34 1    
    66   32  100 1    
    67   33  101 1    
    68   33  102 1    
    69   33  103 1    
    70   34   35 am   BACKBONE|DICT|INTERRES
    71   34  104 1    
    72   35   36 2    
    73   37   38 2    
    74   37   39 am   BACKBONE|DICT|INTERRES
    75   39   40 1    
    76   39  105 1    
    77   40   41 1    
    78   40   42 1    
    79   40  106 1    
    80   41  107 1    
    81   41  108 1    
    82   41  109 1    
    83   42   43 2    
    84   42   44 am   BACKBONE|DICT|INTERRES
    85   44   45 1    
    86   44  110 1    
    87   45   46 1    
    88   45   47 1    
    89   45  111 1    
    90   46  112 1    
    91   46  113 1    
    92   46  114 1    
    93   47   48 2    
    94   47   49 am   BACKBONE|DICT|INTERRES
    95   49   50 1    
    96   49  115 1    
    97   50   51 1    
    98   50   52 1    
    99   50  116 1    
   100   51  117 1    
   101   51  118 1    
   102   51  119 1    
   103   52   53 2    
   104   52   54 am   BACKBONE|DICT|INTERRES
   105   54   55 1    
   106   54  120 1    
   107   55   56 1    
   108   55   57 1    
   109   55  121 1    
   110   56  122 1    
   111   56  123 1    
   112   56  124 1    
   113   57   58 2    
   114   57   59 am   BACKBONE|DICT|INTERRES
   115   59   60 1    
   116   59  125 1    
   117   60   61 1    
   118   60   62 1    
   119   60  126 1    
   120   61  127 1    
   121   61  128 1    
   122   61  129 1    
   123   62   63 2    
   124   62   64 am   BACKBONE|DICT|INTERRES
   125   64   65 1    
   126   64  130 1    
   127   65   66 1    
   128   65   69 1    
   129   65  131 1    
   130   66   67 am   BACKBONE|DICT|INTERRES
   131   66   68 2    
   132   67  132 1    
   133   67  133 1    
   134   69   70 1    
   135   69  134 1    
   136   69  135 1    
   137   70   71 1    
   138   71  136 1    
   139   71  137 1    
@<TRIPOS>SUBSTRUCTURE
     1 UNK         1 GROUP             0       ****    0 ROOT    
