@<TRIPOS>MOLECULE
3R136
137   139    1
SMALL
USER_CHARGES


@<TRIPOS>ATOM
      1 CA         26.3586   21.2101    4.0137 C.3       0 UNK        -0.1979 
      2 C          26.9469   22.3342    3.1759 C.2       0 UNK         0.4864 
      3 O          26.2107   23.2285    2.7562 O.2       0 UNK        -0.5359 
      4 N          28.2682   22.3048    2.9437 N.am      1 UNK        -0.4318 
      5 CA         29.0412   23.2446    2.1158 C.3       1 UNK         0.0824 
      6 C6         30.5571   22.9351    2.1795 C.3       12 UNK        -0.0944 
      7 S7         31.0148   21.5460    1.0839 S.3       12 UNK        -0.2672 
      8 C8         32.7559   21.9103    0.6550 C.3       12 UNK         0.0333 
      9 C9         32.9328   23.3150    0.0933 C.ar      12 UNK        -0.0807 
     10 C10        33.4750   24.3215    0.8968 C.ar      12 UNK        -0.0894 
     11 C11        33.5064   25.6462    0.4547 C.ar      12 UNK        -0.0804 
     12 C12        33.0728   25.9458   -0.8407 C.ar      12 UNK        -0.0824 
     13 C13        32.5752   24.9376   -1.6752 C.ar      12 UNK        -0.0762 
     14 C14        32.5005   23.6244   -1.1987 C.ar      12 UNK        -0.0782 
     15 C15        32.0871   25.2646   -3.0815 C.3       12 UNK         0.0230 
     16 S16        30.7294   26.4807   -3.0988 S.3       12 UNK        -0.2608 
     17 C17        29.5401   25.7275   -1.9376 C.3       12 UNK        -0.0989 
     18 CA         28.2241   26.5343   -1.8076 C.3       5 UNK         0.0716 
     19 N          27.2292   25.8020   -1.0259 N.am      5 UNK        -0.4135 
     20 C          26.1456   25.2043   -1.5348 C.2       4 UNK         0.5031 
     21 O          25.8562   25.2065   -2.7327 O.2       4 UNK        -0.5229 
     22 CA         25.2260   24.4544   -0.5564 C.3       4 UNK         0.0329 
     23 CB         25.5893   22.9608   -0.5234 C.3       4 UNK        -0.2001 
     24 N          25.2400   24.9817    0.8102 N.am      4 UNK        -0.4303 
     25 C          24.6988   26.1496    1.1871 C.2       3 UNK         0.5044 
     26 O          24.1848   26.9500    0.4055 O.2       3 UNK        -0.5152 
     27 CA         24.7228   26.4762    2.6877 C.3       3 UNK         0.0319 
     28 CB         23.5970   25.7253    3.4180 C.3       3 UNK        -0.2001 
     29 N          26.0087   26.1153    3.2846 N.am      3 UNK        -0.4354 
     30 C          26.9468   26.9931    3.6665 C.2       2 UNK         0.4964 
     31 O          26.7986   28.2143    3.6341 O.2       2 UNK        -0.5047 
     32 CA         28.2873   26.4290    4.1764 C.3       2 UNK         0.0288 
     33 CB         28.3283   26.4576    5.7124 C.3       2 UNK        -0.2113 
     34 N          28.5911   25.0726    3.7105 N.am      2 UNK        -0.4145 
     35 C          28.7917   24.7347    2.4285 C.2       1 UNK         0.5006 
     36 O          28.7543   25.5408    1.4975 O.2       1 UNK        -0.5103 
     37 C          28.4242   27.9277   -1.1865 C.2       5 UNK         0.5055 
     38 O          28.1742   28.9275   -1.8634 O.2       5 UNK        -0.5220 
     39 N          28.8338   27.9571    0.0914 N.am      6 UNK        -0.4450 
     40 CA         29.1923   29.1308    0.8965 C.3       6 UNK         0.0367 
     41 CB         27.9901   30.0909    1.0382 C.3       6 UNK        -0.1929 
     42 C          30.4588   29.8582    0.3956 C.2       6 UNK         0.5070 
     43 O          31.0681   29.4711   -0.6041 O.2       6 UNK        -0.5237 
     44 N          30.8445   30.9048    1.1293 N.am      7 UNK        -0.4739 
     45 CA         31.9860   31.7780    0.8695 C.3       7 UNK         0.0276 
     46 CB         33.3051   31.0603    1.2374 C.3       7 UNK        -0.1927 
     47 C          31.7646   33.0850    1.6505 C.2       7 UNK         0.5013 
     48 O          30.6290   33.3800    2.0340 O.2       7 UNK        -0.5193 
     49 N          32.8446   33.8387    1.9024 N.am      8 UNK        -0.4253 
     50 CA         32.8471   35.0507    2.7355 C.3       8 UNK         0.0242 
     51 CB         34.1913   35.7765    2.5600 C.3       8 UNK        -0.2000 
     52 C          32.5699   34.7831    4.2310 C.2       8 UNK         0.4948 
     53 O          32.2237   35.7149    4.9587 O.2       8 UNK        -0.5275 
     54 N          32.7180   33.5247    4.6545 N.am      9 UNK        -0.4246 
     55 CA         32.3494   32.9834    5.9558 C.3       9 UNK         0.0261 
     56 CB         33.5862   32.9663    6.8722 C.3       9 UNK        -0.1959 
     57 C          31.8015   31.5684    5.7185 C.2       9 UNK         0.5033 
     58 O          31.9343   31.0418    4.6092 O.2       9 UNK        -0.5390 
     59 N          31.2000   30.9710    6.7544 N.am      10 UNK        -0.4215 
     60 CA         30.6875   29.5990    6.7262 C.3       10 UNK         0.0240 
     61 CB         29.8898   29.3215    8.0119 C.3       10 UNK        -0.1982 
     62 C          31.8283   28.5802    6.5554 C.2       10 UNK         0.4970 
     63 O          32.7306   28.5367    7.3958 O.2       10 UNK        -0.4916 
     64 N          31.7665   27.8021    5.4693 N.am      11 UNK        -0.4279 
     65 CA         32.7267   26.7456    5.1236 C.3       11 UNK         0.1003 
     66 C          32.7788   25.6034    6.1772 C.2       11 UNK         0.5709 
     67 N          33.9540   25.0371    6.4195 N.am      11 UNK        -0.7358 
     68 O          31.7612   25.1973    6.7379 O.2       11 UNK        -0.4999 
     69 C69        32.4359   26.1671    3.7156 C.3       12 UNK        -0.0954 
     70 S70        32.5941   27.4125    2.3882 S.3       12 UNK        -0.2268 
     71 C71        33.9725   26.7562    1.3875 C.3       12 UNK         0.0203 
     72 H72        25.6019   20.6751    3.4403 H         1 UNK         0.0888 
     73 H73        27.1174   20.4936    4.3276 H         1 UNK         0.0888 
     74 H74        25.8848   21.6178    4.9062 H         1 UNK         0.0888 
     75 H75        28.8040   21.5331    3.3160 H         1 UNK         0.3017 
     76 H76        28.7022   23.1049    1.0874 H         1 UNK         0.0873 
     77 H77        31.1249   23.8150    1.8829 H         1 UNK         0.0745 
     78 H78        30.8753   22.7121    3.2000 H         1 UNK         0.0745 
     79 H79        33.1018   21.1791   -0.0769 H         1 UNK         0.0705 
     80 H80        33.3749   21.7696    1.5426 H         1 UNK         0.0705 
     81 H81        33.8166   24.0761    1.8915 H         1 UNK         0.1334 
     82 H82        33.0922   26.9694   -1.1909 H         1 UNK         0.1417 
     83 H83        32.0811   22.8445   -1.8200 H         1 UNK         0.1562 
     84 H84        31.7525   24.3628   -3.5966 H         1 UNK         0.0748 
     85 H85        32.9208   25.6585   -3.6643 H         1 UNK         0.0748 
     86 H86        30.0144   25.6037   -0.9622 H         1 UNK         0.0940 
     87 H87        29.3198   24.7199   -2.2942 H         1 UNK         0.0940 
     88 H88        27.8415   26.7017   -2.8170 H         1 UNK         0.0703 
     89 H89        27.3966   25.7516   -0.0274 H         1 UNK         0.3081 
     90 H90        24.2060   24.5448   -0.9363 H         1 UNK         0.0719 
     91 H91        24.9017   22.3992    0.1095 H         1 UNK         0.0809 
     92 H92        25.5406   22.5238   -1.5218 H         1 UNK         0.0809 
     93 H93        26.5989   22.7989   -0.1451 H         1 UNK         0.0809 
     94 H94        25.6079   24.3585    1.5282 H         1 UNK         0.2990 
     95 H95        24.5368   27.5470    2.7959 H         1 UNK         0.0690 
     96 H96        22.6233   25.9680    2.9899 H         1 UNK         0.0788 
     97 H97        23.5635   25.9961    4.4735 H         1 UNK         0.0788 
     98 H98        23.7224   24.6432    3.3548 H         1 UNK         0.0788 
     99 H99        26.2196   25.1228    3.3263 H         1 UNK         0.2993 
    100 H100       29.0711   27.0883    3.7988 H         1 UNK         0.0949 
    101 H101       27.5824   25.7910    6.1472 H         1 UNK         0.0767 
    102 H102       29.3056   26.1599    6.0918 H         1 UNK         0.0767 
    103 H103       28.1262   27.4611    6.0899 H         1 UNK         0.0767 
    104 H104       28.6214   24.3449    4.4100 H         1 UNK         0.3013 
    105 H105       28.9942   27.0649    0.5558 H         1 UNK         0.3121 
    106 H106       29.4297   28.7407    1.8872 H         1 UNK         0.0774 
    107 H107       27.8088   30.6532    0.1218 H         1 UNK         0.0815 
    108 H108       28.1535   30.8158    1.8361 H         1 UNK         0.0815 
    109 H109       27.0758   29.5500    1.2824 H         1 UNK         0.0815 
    110 H110       30.2755   31.2058    1.9113 H         1 UNK         0.2987 
    111 H111       31.9979   32.0318   -0.1925 H         1 UNK         0.0949 
    112 H112       34.1785   31.6597    0.9804 H         1 UNK         0.0806 
    113 H113       33.3565   30.8329    2.3028 H         1 UNK         0.0806 
    114 H114       33.4079   30.1180    0.6991 H         1 UNK         0.0806 
    115 H115       33.7395   33.5337    1.5474 H         1 UNK         0.3010 
    116 H116       32.0529   35.7079    2.3745 H         1 UNK         0.0829 
    117 H117       34.2143   36.7008    3.1393 H         1 UNK         0.0813 
    118 H118       35.0287   35.1625    2.8943 H         1 UNK         0.0813 
    119 H119       34.3650   36.0462    1.5181 H         1 UNK         0.0813 
    120 H120       32.9186   32.8057    3.9702 H         1 UNK         0.3038 
    121 H121       31.5588   33.5906    6.4024 H         1 UNK         0.0769 
    122 H122       33.3399   32.5852    7.8639 H         1 UNK         0.0811 
    123 H123       33.9929   33.9692    7.0046 H         1 UNK         0.0811 
    124 H124       34.3784   32.3353    6.4667 H         1 UNK         0.0811 
    125 H125       31.1543   31.4549    7.6396 H         1 UNK         0.3204 
    126 H126       30.0027   29.5134    5.8791 H         1 UNK         0.0748 
    127 H127       29.0303   29.9868    8.0976 H         1 UNK         0.0771 
    128 H128       29.5102   28.2990    8.0236 H         1 UNK         0.0771 
    129 H129       30.5041   29.4482    8.9044 H         1 UNK         0.0771 
    130 H130       31.0168   27.9406    4.8104 H         1 UNK         0.2980 
    131 H131       33.7126   27.2150    5.0983 H         1 UNK         0.0545 
    132 H132       34.0033   24.2837    7.0879 H         1 UNK         0.3459 
    133 H133       34.7942   25.3533    5.9584 H         1 UNK         0.3459 
    134 H134       33.1174   25.3426    3.5146 H         1 UNK         0.0616 
    135 H135       31.4308   25.7455    3.6726 H         1 UNK         0.0616 
    136 H136       34.7718   26.4023    2.0405 H         1 UNK         0.0634 
    137 H137       34.3962   27.5745    0.8034 H         1 UNK         0.0634 
@<TRIPOS>BOND
     1    1    2 1    
     2    1   72 1    
     3    1   73 1    
     4    1   74 1    
     5    2    3 2    
     6    2    4 am   BACKBONE|DICT|INTERRES
     7    4    5 1    
     8    4   75 1    
     9    5    6 1    
    10    5   35 1    
    11    5   76 1    
    12    6    7 1    
    13    6   77 1    
    14    6   78 1    
    15    7    8 1    
    16    8    9 1    
    17    8   79 1    
    18    8   80 1    
    19    9   10 ar   
    20    9   14 ar   
    21   10   11 ar   
    22   10   81 1    
    23   11   12 ar   
    24   11   71 1    
    25   12   13 ar   
    26   12   82 1    
    27   13   14 ar   
    28   13   15 1    
    29   14   83 1    
    30   15   16 1    
    31   15   84 1    
    32   15   85 1    
    33   16   17 1    
    34   17   18 1    
    35   17   86 1    
    36   17   87 1    
    37   18   19 1    
    38   18   37 1    
    39   18   88 1    
    40   19   20 am   BACKBONE|DICT|INTERRES
    41   19   89 1    
    42   20   21 2    
    43   20   22 1    
    44   22   23 1    
    45   22   24 1    
    46   22   90 1    
    47   23   91 1    
    48   23   92 1    
    49   23   93 1    
    50   24   25 am   BACKBONE|DICT|INTERRES
    51   24   94 1    
    52   25   26 2    
    53   25   27 1    
    54   27   28 1    
    55   27   29 1    
    56   27   95 1    
    57   28   96 1    
    58   28   97 1    
    59   28   98 1    
    60   29   30 am   BACKBONE|DICT|INTERRES
    61   29   99 1    
    62   30   31 2    
    63   30   32 1    
    64   32   33 1    
    65   32   34 1    
    66   32  100 1    
    67   33  101 1    
    68   33  102 1    
    69   33  103 1    
    70   34   35 am   BACKBONE|DICT|INTERRES
    71   34  104 1    
    72   35   36 2    
    73   37   38 2    
    74   37   39 am   BACKBONE|DICT|INTERRES
    75   39   40 1    
    76   39  105 1    
    77   40   41 1    
    78   40   42 1    
    79   40  106 1    
    80   41  107 1    
    81   41  108 1    
    82   41  109 1    
    83   42   43 2    
    84   42   44 am   BACKBONE|DICT|INTERRES
    85   44   45 1    
    86   44  110 1    
    87   45   46 1    
    88   45   47 1    
    89   45  111 1    
    90   46  112 1    
    91   46  113 1    
    92   46  114 1    
    93   47   48 2    
    94   47   49 am   BACKBONE|DICT|INTERRES
    95   49   50 1    
    96   49  115 1    
    97   50   51 1    
    98   50   52 1    
    99   50  116 1    
   100   51  117 1    
   101   51  118 1    
   102   51  119 1    
   103   52   53 2    
   104   52   54 am   BACKBONE|DICT|INTERRES
   105   54   55 1    
   106   54  120 1    
   107   55   56 1    
   108   55   57 1    
   109   55  121 1    
   110   56  122 1    
   111   56  123 1    
   112   56  124 1    
   113   57   58 2    
   114   57   59 am   BACKBONE|DICT|INTERRES
   115   59   60 1    
   116   59  125 1    
   117   60   61 1    
   118   60   62 1    
   119   60  126 1    
   120   61  127 1    
   121   61  128 1    
   122   61  129 1    
   123   62   63 2    
   124   62   64 am   BACKBONE|DICT|INTERRES
   125   64   65 1    
   126   64  130 1    
   127   65   66 1    
   128   65   69 1    
   129   65  131 1    
   130   66   67 am   BACKBONE|DICT|INTERRES
   131   66   68 2    
   132   67  132 1    
   133   67  133 1    
   134   69   70 1    
   135   69  134 1    
   136   69  135 1    
   137   70   71 1    
   138   71  136 1    
   139   71  137 1    
@<TRIPOS>SUBSTRUCTURE
     1 UNK         1 GROUP             0       ****    0 ROOT    
