@<TRIPOS>MOLECULE
3R136
137   139    1
SMALL
USER_CHARGES


@<TRIPOS>ATOM
      1 CA         32.6293   24.3587   -4.7567 C.3       0 UNK        -0.1979 
      2 C          31.7978   24.8895   -3.5982 C.2       0 UNK         0.4864 
      3 O          31.7455   26.1023   -3.3895 O.2       0 UNK        -0.5359 
      4 N          31.1552   23.9912   -2.8408 N.am      1 UNK        -0.4318 
      5 CA         30.2654   24.3301   -1.7286 C.3       1 UNK         0.0824 
      6 C6         30.0582   23.1178   -0.7868 C.3       12 UNK        -0.0944 
      7 S7         29.5033   23.6431    0.8670 S.3       12 UNK        -0.2672 
      8 C8         30.8340   23.0039    1.9304 C.3       12 UNK         0.0333 
      9 C9         30.7540   23.6187    3.3178 C.ar      12 UNK        -0.0807 
     10 C10        31.7795   24.4394    3.7943 C.ar      12 UNK        -0.0894 
     11 C11        31.6927   25.0137    5.0654 C.ar      12 UNK        -0.0804 
     12 C12        30.5563   24.7823    5.8495 C.ar      12 UNK        -0.0824 
     13 C13        29.5184   23.9646    5.3848 C.ar      12 UNK        -0.0762 
     14 C14        29.6432   23.3661    4.1254 C.ar      12 UNK        -0.0782 
     15 C15        28.2918   23.7284    6.2701 C.3       12 UNK         0.0230 
     16 S16        26.7552   23.3130    5.3639 S.3       12 UNK        -0.2608 
     17 C17        26.0554   24.9475    4.9519 C.3       12 UNK        -0.0989 
     18 CA         26.6251   25.5609    3.6355 C.3       5 UNK         0.0716 
     19 N          25.6241   26.2455    2.8131 N.am      5 UNK        -0.4135 
     20 C          24.8093   27.2419    3.1965 C.2       4 UNK         0.5031 
     21 O          24.7408   27.6636    4.3516 O.2       4 UNK        -0.5229 
     22 CA         23.9159   27.9021    2.1233 C.3       4 UNK         0.0329 
     23 CB         24.3536   29.3579    1.8855 C.3       4 UNK        -0.2001 
     24 N          23.9084   27.2040    0.8362 N.am      4 UNK        -0.4303 
     25 C          23.3488   26.0103    0.5953 C.2       3 UNK         0.5044 
     26 O          22.6586   25.4022    1.4135 O.2       3 UNK        -0.5152 
     27 CA         23.6388   25.3661   -0.7761 C.3       3 UNK         0.0319 
     28 CB         22.4105   25.4829   -1.6932 C.3       3 UNK        -0.2001 
     29 N          24.8141   25.9055   -1.4776 N.am      3 UNK        -0.4354 
     30 C          26.0750   25.8889   -1.0211 C.2       2 UNK         0.4964 
     31 O          26.3976   25.4573    0.0897 O.2       2 UNK        -0.5047 
     32 CA         27.1266   26.5498   -1.9235 C.3       2 UNK         0.0288 
     33 CB         27.1881   28.0605   -1.6405 C.3       2 UNK        -0.2113 
     34 N          28.4447   25.9726   -1.6758 N.am      2 UNK        -0.4145 
     35 C          28.9205   24.8688   -2.2607 C.2       1 UNK         0.5006 
     36 O          28.3383   24.2648   -3.1668 O.2       1 UNK        -0.5103 
     37 C          27.8288   26.4988    3.8471 C.2       5 UNK         0.5055 
     38 O          28.0847   26.9512    4.9653 O.2       5 UNK        -0.5220 
     39 N          28.5273   26.8027    2.7480 N.am      6 UNK        -0.4450 
     40 CA         29.7619   27.5764    2.7381 C.3       6 UNK         0.0367 
     41 CB         29.4666   29.0793    2.8972 C.3       6 UNK        -0.1929 
     42 C          30.4958   27.3037    1.4248 C.2       6 UNK         0.5070 
     43 O          29.8407   27.1333    0.3964 O.2       6 UNK        -0.5237 
     44 N          31.8309   27.3046    1.4709 N.am      7 UNK        -0.4739 
     45 CA         32.7133   27.1716    0.3042 C.3       7 UNK         0.0276 
     46 CB         33.4641   25.8309    0.3875 C.3       7 UNK        -0.1927 
     47 C          33.6738   28.3708    0.1938 C.2       7 UNK         0.5013 
     48 O          34.7267   28.2620   -0.4364 O.2       7 UNK        -0.5193 
     49 N          33.2989   29.4907    0.8190 N.am      8 UNK        -0.4253 
     50 CA         34.0275   30.7505    0.9130 C.3       8 UNK         0.0242 
     51 CB         35.2241   30.5950    1.8753 C.3       8 UNK        -0.2000 
     52 C          33.0349   31.8141    1.4064 C.2       8 UNK         0.4948 
     53 O          31.8654   31.4920    1.6368 O.2       8 UNK        -0.5275 
     54 N          33.5108   33.0543    1.5905 N.am      9 UNK        -0.4246 
     55 CA         32.7353   34.1601    2.1724 C.3       9 UNK         0.0261 
     56 CB         33.5503   35.4609    2.0867 C.3       9 UNK        -0.1959 
     57 C          32.2896   33.8939    3.6248 C.2       9 UNK         0.5033 
     58 O          31.2098   34.3356    4.0204 O.2       9 UNK        -0.5390 
     59 N          33.1141   33.1515    4.3705 N.am      10 UNK        -0.4215 
     60 CA         32.8326   32.5849    5.6825 C.3       10 UNK         0.0240 
     61 CB         33.0334   33.6425    6.7833 C.3       10 UNK        -0.1982 
     62 C          33.7855   31.3998    5.8691 C.2       10 UNK         0.4970 
     63 O          34.9081   31.4468    5.3583 O.2       10 UNK        -0.4916 
     64 N          33.3379   30.3773    6.5997 N.am      11 UNK        -0.4279 
     65 CA         34.1125   29.1779    6.9386 C.3       11 UNK         0.1003 
     66 C          33.5297   28.4707    8.1912 C.2       11 UNK         0.5709 
     67 N          34.2378   27.4927    8.7398 N.am      11 UNK        -0.7358 
     68 O          32.4464   28.7996    8.6738 O.2       11 UNK        -0.4999 
     69 C69        34.3340   28.2247    5.7261 C.3       12 UNK        -0.0954 
     70 S70        32.8028   27.5616    4.9825 S.3       12 UNK        -0.2268 
     71 C71        32.8457   25.8506    5.6009 C.3       12 UNK         0.0203 
     72 H72        32.5968   23.2710   -4.8179 H         1 UNK         0.0888 
     73 H73        33.6698   24.6606   -4.6405 H         1 UNK         0.0888 
     74 H74        32.2599   24.7625   -5.6990 H         1 UNK         0.0888 
     75 H75        31.2032   23.0119   -3.0828 H         1 UNK         0.3017 
     76 H76        30.7564   25.1230   -1.1604 H         1 UNK         0.0873 
     77 H77        30.9921   22.5638   -0.6798 H         1 UNK         0.0745 
     78 H78        29.3385   22.4067   -1.1977 H         1 UNK         0.0745 
     79 H79        30.7478   21.9189    2.0044 H         1 UNK         0.0705 
     80 H80        31.8034   23.2085    1.4764 H         1 UNK         0.0705 
     81 H81        32.6500   24.6278    3.1810 H         1 UNK         0.1334 
     82 H82        30.4820   25.2372    6.8279 H         1 UNK         0.1417 
     83 H83        28.8656   22.7171    3.7481 H         1 UNK         0.1562 
     84 H84        28.1069   24.6009    6.8988 H         1 UNK         0.0748 
     85 H85        28.5204   22.9045    6.9471 H         1 UNK         0.0748 
     86 H86        26.1368   25.6227    5.8055 H         1 UNK         0.0940 
     87 H87        24.9835   24.7793    4.8371 H         1 UNK         0.0940 
     88 H88        26.9799   24.7403    3.0089 H         1 UNK         0.0703 
     89 H89        25.6430   25.9918    1.8296 H         1 UNK         0.3081 
     90 H90        22.8953   27.9082    2.5116 H         1 UNK         0.0719 
     91 H91        24.3284   29.9311    2.8134 H         1 UNK         0.0809 
     92 H92        25.3710   29.4151    1.4960 H         1 UNK         0.0809 
     93 H93        23.6931   29.8621    1.1798 H         1 UNK         0.0809 
     94 H94        24.4447   27.6259    0.0927 H         1 UNK         0.2990 
     95 H95        23.8292   24.3064   -0.5937 H         1 UNK         0.0690 
     96 H96        22.5587   24.9418   -2.6280 H         1 UNK         0.0788 
     97 H97        22.1859   26.5222   -1.9367 H         1 UNK         0.0788 
     98 H98        21.5243   25.0615   -1.2161 H         1 UNK         0.0788 
     99 H99        24.6390   26.3070   -2.3881 H         1 UNK         0.2993 
    100 H100       26.8531   26.3943   -2.9695 H         1 UNK         0.0949 
    101 H101       27.4327   28.2664   -0.5970 H         1 UNK         0.0767 
    102 H102       27.9424   28.5469   -2.2594 H         1 UNK         0.0767 
    103 H103       26.2338   28.5428   -1.8556 H         1 UNK         0.0767 
    104 H104       28.9721   26.3830   -0.9030 H         1 UNK         0.3013 
    105 H105       28.2782   26.3967    1.8529 H         1 UNK         0.3121 
    106 H106       30.3803   27.2326    3.5668 H         1 UNK         0.0774 
    107 H107       28.8624   29.4599    2.0727 H         1 UNK         0.0815 
    108 H108       28.9371   29.2901    3.8261 H         1 UNK         0.0815 
    109 H109       30.3914   29.6557    2.9213 H         1 UNK         0.0815 
    110 H110       32.2893   27.4580    2.3603 H         1 UNK         0.2987 
    111 H111       32.1294   27.1744   -0.6191 H         1 UNK         0.0949 
    112 H112       32.7676   24.9948    0.4057 H         1 UNK         0.0806 
    113 H113       34.1101   25.6857   -0.4794 H         1 UNK         0.0806 
    114 H114       34.0896   25.7728    1.2788 H         1 UNK         0.0806 
    115 H115       32.3807   29.5332    1.2463 H         1 UNK         0.3010 
    116 H116       34.3778   31.0381   -0.0803 H         1 UNK         0.0829 
    117 H117       35.7884   31.5226    1.9735 H         1 UNK         0.0813 
    118 H118       35.9242   29.8379    1.5224 H         1 UNK         0.0813 
    119 H119       34.8975   30.3013    2.8734 H         1 UNK         0.0813 
    120 H120       34.4749   33.2479    1.3588 H         1 UNK         0.3038 
    121 H121       31.8316   34.2826    1.5715 H         1 UNK         0.0769 
    122 H122       33.7970   35.7084    1.0541 H         1 UNK         0.0811 
    123 H123       34.4823   35.3934    2.6495 H         1 UNK         0.0811 
    124 H124       32.9853   36.3013    2.4928 H         1 UNK         0.0811 
    125 H125       33.9833   32.8225    3.9680 H         1 UNK         0.3204 
    126 H126       31.8030   32.2207    5.6999 H         1 UNK         0.0748 
    127 H127       32.8433   33.2202    7.7709 H         1 UNK         0.0771 
    128 H128       34.0518   34.0332    6.7840 H         1 UNK         0.0771 
    129 H129       32.3527   34.4844    6.6556 H         1 UNK         0.0771 
    130 H130       32.4202   30.4102    7.0241 H         1 UNK         0.2980 
    131 H131       35.0950   29.5330    7.2558 H         1 UNK         0.0545 
    132 H132       35.1323   27.2196    8.3643 H         1 UNK         0.3459 
    133 H133       33.8745   27.0262    9.5560 H         1 UNK         0.3459 
    134 H134       34.8718   28.7540    4.9390 H         1 UNK         0.0616 
    135 H135       34.9914   27.4005    6.0065 H         1 UNK         0.0616 
    136 H136       33.7914   25.3881    5.3141 H         1 UNK         0.0634 
    137 H137       32.8274   25.8616    6.6915 H         1 UNK         0.0634 
@<TRIPOS>BOND
     1    1    2 1    
     2    1   72 1    
     3    1   73 1    
     4    1   74 1    
     5    2    3 2    
     6    2    4 am   BACKBONE|DICT|INTERRES
     7    4    5 1    
     8    4   75 1    
     9    5    6 1    
    10    5   35 1    
    11    5   76 1    
    12    6    7 1    
    13    6   77 1    
    14    6   78 1    
    15    7    8 1    
    16    8    9 1    
    17    8   79 1    
    18    8   80 1    
    19    9   10 ar   
    20    9   14 ar   
    21   10   11 ar   
    22   10   81 1    
    23   11   12 ar   
    24   11   71 1    
    25   12   13 ar   
    26   12   82 1    
    27   13   14 ar   
    28   13   15 1    
    29   14   83 1    
    30   15   16 1    
    31   15   84 1    
    32   15   85 1    
    33   16   17 1    
    34   17   18 1    
    35   17   86 1    
    36   17   87 1    
    37   18   19 1    
    38   18   37 1    
    39   18   88 1    
    40   19   20 am   BACKBONE|DICT|INTERRES
    41   19   89 1    
    42   20   21 2    
    43   20   22 1    
    44   22   23 1    
    45   22   24 1    
    46   22   90 1    
    47   23   91 1    
    48   23   92 1    
    49   23   93 1    
    50   24   25 am   BACKBONE|DICT|INTERRES
    51   24   94 1    
    52   25   26 2    
    53   25   27 1    
    54   27   28 1    
    55   27   29 1    
    56   27   95 1    
    57   28   96 1    
    58   28   97 1    
    59   28   98 1    
    60   29   30 am   BACKBONE|DICT|INTERRES
    61   29   99 1    
    62   30   31 2    
    63   30   32 1    
    64   32   33 1    
    65   32   34 1    
    66   32  100 1    
    67   33  101 1    
    68   33  102 1    
    69   33  103 1    
    70   34   35 am   BACKBONE|DICT|INTERRES
    71   34  104 1    
    72   35   36 2    
    73   37   38 2    
    74   37   39 am   BACKBONE|DICT|INTERRES
    75   39   40 1    
    76   39  105 1    
    77   40   41 1    
    78   40   42 1    
    79   40  106 1    
    80   41  107 1    
    81   41  108 1    
    82   41  109 1    
    83   42   43 2    
    84   42   44 am   BACKBONE|DICT|INTERRES
    85   44   45 1    
    86   44  110 1    
    87   45   46 1    
    88   45   47 1    
    89   45  111 1    
    90   46  112 1    
    91   46  113 1    
    92   46  114 1    
    93   47   48 2    
    94   47   49 am   BACKBONE|DICT|INTERRES
    95   49   50 1    
    96   49  115 1    
    97   50   51 1    
    98   50   52 1    
    99   50  116 1    
   100   51  117 1    
   101   51  118 1    
   102   51  119 1    
   103   52   53 2    
   104   52   54 am   BACKBONE|DICT|INTERRES
   105   54   55 1    
   106   54  120 1    
   107   55   56 1    
   108   55   57 1    
   109   55  121 1    
   110   56  122 1    
   111   56  123 1    
   112   56  124 1    
   113   57   58 2    
   114   57   59 am   BACKBONE|DICT|INTERRES
   115   59   60 1    
   116   59  125 1    
   117   60   61 1    
   118   60   62 1    
   119   60  126 1    
   120   61  127 1    
   121   61  128 1    
   122   61  129 1    
   123   62   63 2    
   124   62   64 am   BACKBONE|DICT|INTERRES
   125   64   65 1    
   126   64  130 1    
   127   65   66 1    
   128   65   69 1    
   129   65  131 1    
   130   66   67 am   BACKBONE|DICT|INTERRES
   131   66   68 2    
   132   67  132 1    
   133   67  133 1    
   134   69   70 1    
   135   69  134 1    
   136   69  135 1    
   137   70   71 1    
   138   71  136 1    
   139   71  137 1    
@<TRIPOS>SUBSTRUCTURE
     1 UNK         1 GROUP             0       ****    0 ROOT    
