@<TRIPOS>MOLECULE
3R136
137   139    1
SMALL
USER_CHARGES


@<TRIPOS>ATOM
      1 CA         31.6696   27.4973    3.1686 C.3       0 UNK        -0.1979 
      2 C          30.3839   26.8430    3.6414 C.2       0 UNK         0.4864 
      3 O          29.7271   27.3585    4.5485 O.2       0 UNK        -0.5359 
      4 N          30.0097   25.7079    3.0353 N.am      1 UNK        -0.4318 
      5 CA         28.7221   25.0583    3.2737 C.3       1 UNK         0.0824 
      6 C6         28.7492   23.5313    3.0017 C.3       12 UNK        -0.0944 
      7 S7         29.1531   23.0012    1.3015 S.3       12 UNK        -0.2672 
      8 C8         30.8917   22.4579    1.4306 C.3       12 UNK         0.0333 
      9 C9         31.8794   23.5947    1.1959 C.ar      12 UNK        -0.0807 
     10 C10        32.9303   23.8268    2.0895 C.ar      12 UNK        -0.0894 
     11 C11        33.8568   24.8502    1.8527 C.ar      12 UNK        -0.0804 
     12 C12        33.7052   25.6610    0.7205 C.ar      12 UNK        -0.0824 
     13 C13        32.6446   25.4543   -0.1654 C.ar      12 UNK        -0.0762 
     14 C14        31.7617   24.3963    0.0580 C.ar      12 UNK        -0.0782 
     15 C15        32.4429   26.3757   -1.3599 C.3       12 UNK         0.0230 
     16 S16        31.5554   27.9036   -0.9029 S.3       12 UNK        -0.2608 
     17 C17        29.9012   27.2756   -0.4523 C.3       12 UNK        -0.0989 
     18 CA         28.9290   27.2464   -1.6601 C.3       5 UNK         0.0716 
     19 N          28.0252   26.1001   -1.5813 N.am      5 UNK        -0.4135 
     20 C          27.4914   25.4802   -2.6425 C.2       4 UNK         0.5031 
     21 O          27.7286   25.7938   -3.8101 O.2       4 UNK        -0.5229 
     22 CA         26.5426   24.3026   -2.3670 C.3       4 UNK         0.0329 
     23 CB         27.3360   22.9952   -2.2149 C.3       4 UNK        -0.2001 
     24 N          25.7193   24.5214   -1.1766 N.am      4 UNK        -0.4303 
     25 C          24.5681   25.2103   -1.1819 C.2       3 UNK         0.5044 
     26 O          24.0543   25.6897   -2.1931 O.2       3 UNK        -0.5152 
     27 CA         23.8970   25.4279    0.1769 C.3       3 UNK         0.0319 
     28 CB         23.3898   24.1102    0.7918 C.3       3 UNK        -0.2001 
     29 N          24.8504   26.0822    1.0627 N.am      3 UNK        -0.4354 
     30 C          24.5708   26.8726    2.0984 C.2       2 UNK         0.4964 
     31 O          23.4270   27.0938    2.5008 O.2       2 UNK        -0.5047 
     32 CA         25.7866   27.5228    2.7916 C.3       2 UNK         0.0288 
     33 CB         25.3778   28.4279    3.9694 C.3       2 UNK        -0.2113 
     34 N          26.7833   26.5572    3.2702 N.am      2 UNK        -0.4145 
     35 C          27.6259   25.8367    2.5151 C.2       1 UNK         0.5006 
     36 O          27.5921   25.8136    1.2799 O.2       1 UNK        -0.5103 
     37 C          28.1318   28.5594   -1.7480 C.2       5 UNK         0.5055 
     38 O          27.0073   28.6392   -1.2459 O.2       5 UNK        -0.5220 
     39 N          28.7661   29.5839   -2.3321 N.am      6 UNK        -0.4450 
     40 CA         28.3132   30.9757   -2.2613 C.3       6 UNK         0.0367 
     41 CB         28.9260   31.7693   -3.4266 C.3       6 UNK        -0.1929 
     42 C          28.6753   31.6296   -0.9133 C.2       6 UNK         0.5070 
     43 O          28.0047   32.5772   -0.5023 O.2       6 UNK        -0.5237 
     44 N          29.7276   31.1212   -0.2567 N.am      7 UNK        -0.4739 
     45 CA         30.1531   31.5159    1.0855 C.3       7 UNK         0.0276 
     46 CB         31.6441   31.1695    1.2488 C.3       7 UNK        -0.1927 
     47 C          29.3176   30.8090    2.1663 C.2       7 UNK         0.5013 
     48 O          28.6414   29.8183    1.8818 O.2       7 UNK        -0.5193 
     49 N          29.4194   31.3128    3.3986 N.am      8 UNK        -0.4253 
     50 CA         28.8584   30.7039    4.5987 C.3       8 UNK         0.0242 
     51 CB         27.5992   31.4747    5.0304 C.3       8 UNK        -0.2000 
     52 C          29.9328   30.7491    5.6888 C.2       8 UNK         0.4948 
     53 O          30.6223   31.7663    5.8053 O.2       8 UNK        -0.5275 
     54 N          30.0384   29.6633    6.4662 N.am      9 UNK        -0.4246 
     55 CA         31.0209   29.4352    7.5316 C.3       9 UNK         0.0261 
     56 CB         30.8376   30.4367    8.6963 C.3       9 UNK        -0.1959 
     57 C          32.4450   29.3684    6.9495 C.2       9 UNK         0.5033 
     58 O          32.6693   28.5561    6.0512 O.2       9 UNK        -0.5390 
     59 N          33.3761   30.1892    7.4599 N.am      10 UNK        -0.4215 
     60 CA         34.7803   30.2965    7.0423 C.3       10 UNK         0.0240 
     61 CB         34.8794   30.9550    5.6458 C.3       10 UNK        -0.1982 
     62 C          35.5118   28.9437    7.1466 C.2       10 UNK         0.4970 
     63 O          35.8709   28.5415    8.2543 O.2       10 UNK        -0.4916 
     64 N          35.6972   28.2670    6.0074 N.am      11 UNK        -0.4279 
     65 CA         36.2190   26.8980    5.9062 C.3       11 UNK         0.1003 
     66 C          35.2685   25.7919    6.4540 C.2       11 UNK         0.5709 
     67 N          33.9786   26.0498    6.6370 N.am      11 UNK        -0.7358 
     68 O          35.7169   24.6802    6.7234 O.2       11 UNK        -0.4999 
     69 C69        36.6984   26.5872    4.4632 C.3       12 UNK        -0.0954 
     70 S70        35.3919   26.7804    3.1995 S.3       12 UNK        -0.2268 
     71 C71        35.0361   25.0360    2.8044 C.3       12 UNK         0.0203 
     72 H72        31.8456   27.3132    2.1102 H         1 UNK         0.0888 
     73 H73        31.6260   28.5752    3.3224 H         1 UNK         0.0888 
     74 H74        32.5122   27.1071    3.7369 H         1 UNK         0.0888 
     75 H75        30.5720   25.3116    2.2942 H         1 UNK         0.3017 
     76 H76        28.5040   25.1494    4.3405 H         1 UNK         0.0873 
     77 H77        27.7763   23.1038    3.2504 H         1 UNK         0.0745 
     78 H78        29.4492   23.0593    3.6925 H         1 UNK         0.0745 
     79 H79        31.0611   21.9753    2.3941 H         1 UNK         0.0705 
     80 H80        31.0684   21.6930    0.6733 H         1 UNK         0.0705 
     81 H81        33.0405   23.1948    2.9604 H         1 UNK         0.1334 
     82 H82        34.4058   26.4628    0.5319 H         1 UNK         0.1417 
     83 H83        30.9573   24.2131   -0.6421 H         1 UNK         0.1562 
     84 H84        31.8969   25.8640   -2.1541 H         1 UNK         0.0748 
     85 H85        33.4123   26.6444   -1.7820 H         1 UNK         0.0748 
     86 H86        29.5093   27.8760    0.3711 H         1 UNK         0.0940 
     87 H87        30.0010   26.2841   -0.0197 H         1 UNK         0.0940 
     88 H88        29.5126   27.1415   -2.5777 H         1 UNK         0.0703 
     89 H89        27.7567   25.8236   -0.6421 H         1 UNK         0.3081 
     90 H90        25.8893   24.1924   -3.2356 H         1 UNK         0.0719 
     91 H91        28.0395   23.0419   -1.3846 H         1 UNK         0.0809 
     92 H92        26.6744   22.1450   -2.0483 H         1 UNK         0.0809 
     93 H93        27.9131   22.7844   -3.1162 H         1 UNK         0.0809 
     94 H94        26.0676   24.1467   -0.3054 H         1 UNK         0.2990 
     95 H95        23.0446   26.0932    0.0224 H         1 UNK         0.0690 
     96 H96        22.7163   23.5941    0.1063 H         1 UNK         0.0788 
     97 H97        22.8354   24.2932    1.7125 H         1 UNK         0.0788 
     98 H98        24.2068   23.4272    1.0268 H         1 UNK         0.0788 
     99 H99        25.8357   25.9782    0.8306 H         1 UNK         0.2993 
    100 H100       26.2726   28.1554    2.0441 H         1 UNK         0.0949 
    101 H101       26.2448   28.9171    4.4114 H         1 UNK         0.0767 
    102 H102       24.6980   29.2152    3.6407 H         1 UNK         0.0767 
    103 H103       24.8730   27.8650    4.7555 H         1 UNK         0.0767 
    104 H104       26.8977   26.5144    4.2723 H         1 UNK         0.3013 
    105 H105       29.6815   29.4245   -2.7297 H         1 UNK         0.3121 
    106 H106       27.2259   31.0026   -2.3634 H         1 UNK         0.0774 
    107 H107       30.0156   31.7852   -3.3783 H         1 UNK         0.0815 
    108 H108       28.5847   32.8054   -3.4129 H         1 UNK         0.0815 
    109 H109       28.6373   31.3475   -4.3895 H         1 UNK         0.0815 
    110 H110       30.1870   30.3112   -0.6456 H         1 UNK         0.2987 
    111 H111       30.0249   32.5951    1.1971 H         1 UNK         0.0949 
    112 H112       31.8181   30.0945    1.1895 H         1 UNK         0.0806 
    113 H113       32.2499   31.6489    0.4796 H         1 UNK         0.0806 
    114 H114       32.0260   31.5055    2.2137 H         1 UNK         0.0806 
    115 H115       30.0443   32.0888    3.5766 H         1 UNK         0.3010 
    116 H116       28.5895   29.6640    4.4060 H         1 UNK         0.0829 
    117 H117       26.8382   31.4562    4.2501 H         1 UNK         0.0813 
    118 H118       27.1593   31.0326    5.9252 H         1 UNK         0.0813 
    119 H119       27.8222   32.5184    5.2559 H         1 UNK         0.0813 
    120 H120       29.5229   28.8387    6.1786 H         1 UNK         0.3038 
    121 H121       30.8138   28.4383    7.9235 H         1 UNK         0.0769 
    122 H122       29.8140   30.4131    9.0703 H         1 UNK         0.0811 
    123 H123       31.4857   30.1867    9.5374 H         1 UNK         0.0811 
    124 H124       31.0533   31.4644    8.4025 H         1 UNK         0.0811 
    125 H125       33.0970   30.7993    8.2151 H         1 UNK         0.3204 
    126 H126       35.2687   30.9637    7.7542 H         1 UNK         0.0748 
    127 H127       35.9181   31.0427    5.3240 H         1 UNK         0.0771 
    128 H128       34.3398   30.3965    4.8799 H         1 UNK         0.0771 
    129 H129       34.4643   31.9628    5.6629 H         1 UNK         0.0771 
    130 H130       35.3107   28.6472    5.1561 H         1 UNK         0.2980 
    131 H131       37.1040   26.8573    6.5439 H         1 UNK         0.0545 
    132 H132       33.3777   25.3263    6.9954 H         1 UNK         0.3459 
    133 H133       33.5905   26.9567    6.3880 H         1 UNK         0.3459 
    134 H134       37.1293   25.5859    4.4050 H         1 UNK         0.0616 
    135 H135       37.5102   27.2666    4.1995 H         1 UNK         0.0616 
    136 H136       35.9222   24.5863    2.3549 H         1 UNK         0.0634 
    137 H137       34.8523   24.5014    3.7374 H         1 UNK         0.0634 
@<TRIPOS>BOND
     1    1    2 1    
     2    1   72 1    
     3    1   73 1    
     4    1   74 1    
     5    2    3 2    
     6    2    4 am   BACKBONE|DICT|INTERRES
     7    4    5 1    
     8    4   75 1    
     9    5    6 1    
    10    5   35 1    
    11    5   76 1    
    12    6    7 1    
    13    6   77 1    
    14    6   78 1    
    15    7    8 1    
    16    8    9 1    
    17    8   79 1    
    18    8   80 1    
    19    9   10 ar   
    20    9   14 ar   
    21   10   11 ar   
    22   10   81 1    
    23   11   12 ar   
    24   11   71 1    
    25   12   13 ar   
    26   12   82 1    
    27   13   14 ar   
    28   13   15 1    
    29   14   83 1    
    30   15   16 1    
    31   15   84 1    
    32   15   85 1    
    33   16   17 1    
    34   17   18 1    
    35   17   86 1    
    36   17   87 1    
    37   18   19 1    
    38   18   37 1    
    39   18   88 1    
    40   19   20 am   BACKBONE|DICT|INTERRES
    41   19   89 1    
    42   20   21 2    
    43   20   22 1    
    44   22   23 1    
    45   22   24 1    
    46   22   90 1    
    47   23   91 1    
    48   23   92 1    
    49   23   93 1    
    50   24   25 am   BACKBONE|DICT|INTERRES
    51   24   94 1    
    52   25   26 2    
    53   25   27 1    
    54   27   28 1    
    55   27   29 1    
    56   27   95 1    
    57   28   96 1    
    58   28   97 1    
    59   28   98 1    
    60   29   30 am   BACKBONE|DICT|INTERRES
    61   29   99 1    
    62   30   31 2    
    63   30   32 1    
    64   32   33 1    
    65   32   34 1    
    66   32  100 1    
    67   33  101 1    
    68   33  102 1    
    69   33  103 1    
    70   34   35 am   BACKBONE|DICT|INTERRES
    71   34  104 1    
    72   35   36 2    
    73   37   38 2    
    74   37   39 am   BACKBONE|DICT|INTERRES
    75   39   40 1    
    76   39  105 1    
    77   40   41 1    
    78   40   42 1    
    79   40  106 1    
    80   41  107 1    
    81   41  108 1    
    82   41  109 1    
    83   42   43 2    
    84   42   44 am   BACKBONE|DICT|INTERRES
    85   44   45 1    
    86   44  110 1    
    87   45   46 1    
    88   45   47 1    
    89   45  111 1    
    90   46  112 1    
    91   46  113 1    
    92   46  114 1    
    93   47   48 2    
    94   47   49 am   BACKBONE|DICT|INTERRES
    95   49   50 1    
    96   49  115 1    
    97   50   51 1    
    98   50   52 1    
    99   50  116 1    
   100   51  117 1    
   101   51  118 1    
   102   51  119 1    
   103   52   53 2    
   104   52   54 am   BACKBONE|DICT|INTERRES
   105   54   55 1    
   106   54  120 1    
   107   55   56 1    
   108   55   57 1    
   109   55  121 1    
   110   56  122 1    
   111   56  123 1    
   112   56  124 1    
   113   57   58 2    
   114   57   59 am   BACKBONE|DICT|INTERRES
   115   59   60 1    
   116   59  125 1    
   117   60   61 1    
   118   60   62 1    
   119   60  126 1    
   120   61  127 1    
   121   61  128 1    
   122   61  129 1    
   123   62   63 2    
   124   62   64 am   BACKBONE|DICT|INTERRES
   125   64   65 1    
   126   64  130 1    
   127   65   66 1    
   128   65   69 1    
   129   65  131 1    
   130   66   67 am   BACKBONE|DICT|INTERRES
   131   66   68 2    
   132   67  132 1    
   133   67  133 1    
   134   69   70 1    
   135   69  134 1    
   136   69  135 1    
   137   70   71 1    
   138   71  136 1    
   139   71  137 1    
@<TRIPOS>SUBSTRUCTURE
     1 UNK         1 GROUP             0       ****    0 ROOT    
