@<TRIPOS>MOLECULE
3R136
137   139    1
SMALL
USER_CHARGES


@<TRIPOS>ATOM
      1 CA         32.2931   19.6576    0.7624 C.3       0 UNK        -0.1979 
      2 C          32.0406   20.6634   -0.3513 C.2       0 UNK         0.4864 
      3 O          32.3196   20.3702   -1.5153 O.2       0 UNK        -0.5359 
      4 N          31.5224   21.8473   -0.0014 N.am      1 UNK        -0.4318 
      5 CA         31.1346   22.9026   -0.9412 C.3       1 UNK         0.0824 
      6 C6         31.1809   24.3021   -0.2690 C.3       12 UNK        -0.0944 
      7 S7         29.8974   24.6111    0.9950 S.3       12 UNK        -0.2672 
      8 C8         30.7823   24.2356    2.5426 C.3       12 UNK         0.0333 
      9 C9         30.0022   24.7106    3.7608 C.ar      12 UNK        -0.0807 
     10 C10        30.5742   25.6230    4.6516 C.ar      12 UNK        -0.0894 
     11 C11        29.8576   26.0778    5.7633 C.ar      12 UNK        -0.0804 
     12 C12        28.5572   25.6130    5.9844 C.ar      12 UNK        -0.0824 
     13 C13        27.9698   24.7092    5.0923 C.ar      12 UNK        -0.0762 
     14 C14        28.7045   24.2464    3.9966 C.ar      12 UNK        -0.0782 
     15 C15        26.5279   24.2604    5.2797 C.3       12 UNK         0.0230 
     16 S16        25.4404   24.9537    3.9891 S.3       12 UNK        -0.2608 
     17 C17        25.3939   26.7252    4.4346 C.3       12 UNK        -0.0989 
     18 CA         26.5063   27.5585    3.7500 C.3       5 UNK         0.0716 
     19 N          26.5010   27.4310    2.2945 N.am      5 UNK        -0.4135 
     20 C          27.4888   27.8498    1.4957 C.2       4 UNK         0.5031 
     21 O          28.4896   28.4348    1.9114 O.2       4 UNK        -0.5229 
     22 CA         27.3415   27.5383   -0.0063 C.3       4 UNK         0.0329 
     23 CB         28.5928   27.9248   -0.8172 C.3       4 UNK        -0.2001 
     24 N          27.0529   26.1210   -0.2390 N.am      4 UNK        -0.4303 
     25 C          25.8504   25.5399   -0.1374 C.2       3 UNK         0.5044 
     26 O          24.8337   26.1553    0.1904 O.2       3 UNK        -0.5152 
     27 CA         25.7782   24.0229   -0.4126 C.3       3 UNK         0.0319 
     28 CB         24.3690   23.5666   -0.8458 C.3       3 UNK        -0.2001 
     29 N          26.7922   23.5339   -1.3578 N.am      3 UNK        -0.4354 
     30 C          26.9856   23.9097   -2.6314 C.2       2 UNK         0.4964 
     31 O          26.3061   24.7635   -3.2037 O.2       2 UNK        -0.5047 
     32 CA         28.1509   23.2236   -3.3798 C.3       2 UNK         0.0288 
     33 CB         28.3479   23.7760   -4.8049 C.3       2 UNK        -0.2113 
     34 N          29.4254   23.3217   -2.6574 N.am      2 UNK        -0.4145 
     35 C          29.7656   22.5913   -1.5865 C.2       1 UNK         0.5006 
     36 O          29.0197   21.7415   -1.0881 O.2       1 UNK        -0.5103 
     37 C          26.4375   29.0354    4.1771 C.2       5 UNK         0.5055 
     38 O          25.6216   29.7889    3.6411 O.2       5 UNK        -0.5220 
     39 N          27.2978   29.4011    5.1367 N.am      6 UNK        -0.4450 
     40 CA         27.4965   30.7387    5.7084 C.3       6 UNK         0.0367 
     41 CB         26.1975   31.2908    6.3345 C.3       6 UNK        -0.1929 
     42 C          28.1684   31.7511    4.7574 C.2       6 UNK         0.5070 
     43 O          28.2578   32.9271    5.1147 O.2       6 UNK        -0.5237 
     44 N          28.6639   31.3060    3.5931 N.am      7 UNK        -0.4739 
     45 CA         29.4906   32.1192    2.7020 C.3       7 UNK         0.0276 
     46 CB         29.3842   31.5866    1.2635 C.3       7 UNK        -0.1927 
     47 C          30.9426   32.0634    3.1906 C.2       7 UNK         0.5013 
     48 O          31.4898   30.9663    3.3173 O.2       7 UNK        -0.5193 
     49 N          31.5585   33.2297    3.4264 N.am      8 UNK        -0.4253 
     50 CA         32.9273   33.3608    3.9465 C.3       8 UNK         0.0242 
     51 CB         33.2596   34.8476    4.1494 C.3       8 UNK        -0.2000 
     52 C          34.0027   32.6817    3.0789 C.2       8 UNK         0.4948 
     53 O          34.9776   32.1629    3.6218 O.2       8 UNK        -0.5275 
     54 N          33.7831   32.6527    1.7572 N.am      9 UNK        -0.4246 
     55 CA         34.6268   31.9524    0.7862 C.3       9 UNK         0.0261 
     56 CB         34.2181   32.3787   -0.6335 C.3       9 UNK        -0.1959 
     57 C          34.5867   30.4170    0.9174 C.2       9 UNK         0.5033 
     58 O          35.5425   29.7630    0.4973 O.2       9 UNK        -0.5390 
     59 N          33.4991   29.8702    1.4787 N.am      10 UNK        -0.4215 
     60 CA         33.3200   28.4395    1.7195 C.3       10 UNK         0.0240 
     61 CB         31.8669   28.0468    1.4094 C.3       10 UNK        -0.1982 
     62 C          33.6808   28.0786    3.1661 C.2       10 UNK         0.4970 
     63 O          34.3938   27.0974    3.3796 O.2       10 UNK        -0.4916 
     64 N          33.1775   28.8621    4.1286 N.am      11 UNK        -0.4279 
     65 CA         33.3735   28.6344    5.5675 C.3       11 UNK         0.1003 
     66 C          34.7755   29.0368    6.1028 C.2       11 UNK         0.5709 
     67 N          35.5253   29.9071    5.4381 N.am      11 UNK        -0.7358 
     68 O          35.1975   28.5362    7.1426 O.2       11 UNK        -0.4999 
     69 C69        32.2468   29.2753    6.4210 C.3       12 UNK        -0.0954 
     70 S70        30.5795   28.7257    5.9283 S.3       12 UNK        -0.2268 
     71 C71        30.4924   27.0848    6.7087 C.3       12 UNK         0.0203 
     72 H72        33.3474   19.3836    0.7891 H         1 UNK         0.0888 
     73 H73        32.0215   20.0548    1.7403 H         1 UNK         0.0888 
     74 H74        31.7096   18.7536    0.5899 H         1 UNK         0.0888 
     75 H75        31.2632   22.0100    0.9595 H         1 UNK         0.3017 
     76 H76        31.8681   22.9103   -1.7508 H         1 UNK         0.0873 
     77 H77        32.1665   24.4700    0.1682 H         1 UNK         0.0745 
     78 H78        31.0770   25.0788   -1.0285 H         1 UNK         0.0745 
     79 H79        31.7690   24.7007    2.5171 H         1 UNK         0.0705 
     80 H80        30.9445   23.1605    2.6202 H         1 UNK         0.0705 
     81 H81        31.5743   25.9952    4.4754 H         1 UNK         0.1334 
     82 H82        27.9941   25.9736    6.8344 H         1 UNK         0.1417 
     83 H83        28.2497   23.5526    3.3024 H         1 UNK         0.1562 
     84 H84        26.1517   24.5382    6.2655 H         1 UNK         0.0748 
     85 H85        26.4833   23.1715    5.2309 H         1 UNK         0.0748 
     86 H86        25.4579   26.8172    5.5206 H         1 UNK         0.0940 
     87 H87        24.4104   27.1115    4.1592 H         1 UNK         0.0940 
     88 H88        27.4716   27.1719    4.0748 H         1 UNK         0.0703 
     89 H89        25.7023   26.9709    1.8734 H         1 UNK         0.3081 
     90 H90        26.5066   28.1361   -0.3777 H         1 UNK         0.0719 
     91 H91        29.4700   27.3654   -0.4905 H         1 UNK         0.0809 
     92 H92        28.4505   27.7359   -1.8813 H         1 UNK         0.0809 
     93 H93        28.8211   28.9854   -0.7043 H         1 UNK         0.0809 
     94 H94        27.8484   25.5310   -0.4371 H         1 UNK         0.2990 
     95 H95        26.0005   23.5408    0.5407 H         1 UNK         0.0690 
     96 H96        24.3332   22.4895   -1.0087 H         1 UNK         0.0788 
     97 H97        24.0515   24.0568   -1.7667 H         1 UNK         0.0788 
     98 H98        23.6279   23.8007   -0.0804 H         1 UNK         0.0788 
     99 H99        27.4296   22.8283   -0.9961 H         1 UNK         0.2993 
    100 H100       27.8849   22.1679   -3.4712 H         1 UNK         0.0949 
    101 H101       28.6096   24.8349   -4.7951 H         1 UNK         0.0767 
    102 H102       29.1362   23.2394   -5.3333 H         1 UNK         0.0767 
    103 H103       27.4369   23.6699   -5.3958 H         1 UNK         0.0767 
    104 H104       30.0710   24.0229   -2.9913 H         1 UNK         0.3013 
    105 H105       27.9561   28.7069    5.4664 H         1 UNK         0.3121 
    106 H106       28.2063   30.5996    6.5249 H         1 UNK         0.0774 
    107 H107       26.3975   32.1918    6.9157 H         1 UNK         0.0815 
    108 H108       25.4601   31.5563    5.5769 H         1 UNK         0.0815 
    109 H109       25.7420   30.5671    7.0102 H         1 UNK         0.0815 
    110 H110       28.6027   30.3197    3.3714 H         1 UNK         0.2987 
    111 H111       29.1344   33.1517    2.7115 H         1 UNK         0.0949 
    112 H112       29.9219   32.2322    0.5683 H         1 UNK         0.0806 
    113 H113       29.8075   30.5861    1.1680 H         1 UNK         0.0806 
    114 H114       28.3469   31.5418    0.9314 H         1 UNK         0.0806 
    115 H115       31.0403   34.0875    3.2987 H         1 UNK         0.3010 
    116 H116       32.9490   32.8704    4.9223 H         1 UNK         0.0829 
    117 H117       32.5700   35.3171    4.8512 H         1 UNK         0.0813 
    118 H118       34.2646   34.9706    4.5559 H         1 UNK         0.0813 
    119 H119       33.2172   35.4037    3.2120 H         1 UNK         0.0813 
    120 H120       32.9578   33.1116    1.4000 H         1 UNK         0.3038 
    121 H121       35.6597   32.2658    0.9535 H         1 UNK         0.0769 
    122 H122       34.8494   31.8974   -1.3819 H         1 UNK         0.0811 
    123 H123       34.3210   33.4553   -0.7709 H         1 UNK         0.0811 
    124 H124       33.1854   32.1069   -0.8558 H         1 UNK         0.0811 
    125 H125       32.7842   30.4783    1.8640 H         1 UNK         0.3204 
    126 H126       33.9683   27.8635    1.0557 H         1 UNK         0.0748 
    127 H127       31.7151   26.9765    1.5440 H         1 UNK         0.0771 
    128 H128       31.1578   28.5563    2.0628 H         1 UNK         0.0771 
    129 H129       31.6024   28.2854    0.3797 H         1 UNK         0.0771 
    130 H130       32.5612   29.6328    3.8776 H         1 UNK         0.2980 
    131 H131       33.3104   27.5562    5.7241 H         1 UNK         0.0545 
    132 H132       35.1758   30.3974    4.6233 H         1 UNK         0.3459 
    133 H133       36.4331   30.1444    5.8036 H         1 UNK         0.3459 
    134 H134       32.2790   30.3625    6.3284 H         1 UNK         0.0616 
    135 H135       32.3839   29.0532    7.4810 H         1 UNK         0.0616 
    136 H136       29.9271   27.1630    7.6384 H         1 UNK         0.0634 
    137 H137       31.4878   26.7350    6.9840 H         1 UNK         0.0634 
@<TRIPOS>BOND
     1    1    2 1    
     2    1   72 1    
     3    1   73 1    
     4    1   74 1    
     5    2    3 2    
     6    2    4 am   BACKBONE|DICT|INTERRES
     7    4    5 1    
     8    4   75 1    
     9    5    6 1    
    10    5   35 1    
    11    5   76 1    
    12    6    7 1    
    13    6   77 1    
    14    6   78 1    
    15    7    8 1    
    16    8    9 1    
    17    8   79 1    
    18    8   80 1    
    19    9   10 ar   
    20    9   14 ar   
    21   10   11 ar   
    22   10   81 1    
    23   11   12 ar   
    24   11   71 1    
    25   12   13 ar   
    26   12   82 1    
    27   13   14 ar   
    28   13   15 1    
    29   14   83 1    
    30   15   16 1    
    31   15   84 1    
    32   15   85 1    
    33   16   17 1    
    34   17   18 1    
    35   17   86 1    
    36   17   87 1    
    37   18   19 1    
    38   18   37 1    
    39   18   88 1    
    40   19   20 am   BACKBONE|DICT|INTERRES
    41   19   89 1    
    42   20   21 2    
    43   20   22 1    
    44   22   23 1    
    45   22   24 1    
    46   22   90 1    
    47   23   91 1    
    48   23   92 1    
    49   23   93 1    
    50   24   25 am   BACKBONE|DICT|INTERRES
    51   24   94 1    
    52   25   26 2    
    53   25   27 1    
    54   27   28 1    
    55   27   29 1    
    56   27   95 1    
    57   28   96 1    
    58   28   97 1    
    59   28   98 1    
    60   29   30 am   BACKBONE|DICT|INTERRES
    61   29   99 1    
    62   30   31 2    
    63   30   32 1    
    64   32   33 1    
    65   32   34 1    
    66   32  100 1    
    67   33  101 1    
    68   33  102 1    
    69   33  103 1    
    70   34   35 am   BACKBONE|DICT|INTERRES
    71   34  104 1    
    72   35   36 2    
    73   37   38 2    
    74   37   39 am   BACKBONE|DICT|INTERRES
    75   39   40 1    
    76   39  105 1    
    77   40   41 1    
    78   40   42 1    
    79   40  106 1    
    80   41  107 1    
    81   41  108 1    
    82   41  109 1    
    83   42   43 2    
    84   42   44 am   BACKBONE|DICT|INTERRES
    85   44   45 1    
    86   44  110 1    
    87   45   46 1    
    88   45   47 1    
    89   45  111 1    
    90   46  112 1    
    91   46  113 1    
    92   46  114 1    
    93   47   48 2    
    94   47   49 am   BACKBONE|DICT|INTERRES
    95   49   50 1    
    96   49  115 1    
    97   50   51 1    
    98   50   52 1    
    99   50  116 1    
   100   51  117 1    
   101   51  118 1    
   102   51  119 1    
   103   52   53 2    
   104   52   54 am   BACKBONE|DICT|INTERRES
   105   54   55 1    
   106   54  120 1    
   107   55   56 1    
   108   55   57 1    
   109   55  121 1    
   110   56  122 1    
   111   56  123 1    
   112   56  124 1    
   113   57   58 2    
   114   57   59 am   BACKBONE|DICT|INTERRES
   115   59   60 1    
   116   59  125 1    
   117   60   61 1    
   118   60   62 1    
   119   60  126 1    
   120   61  127 1    
   121   61  128 1    
   122   61  129 1    
   123   62   63 2    
   124   62   64 am   BACKBONE|DICT|INTERRES
   125   64   65 1    
   126   64  130 1    
   127   65   66 1    
   128   65   69 1    
   129   65  131 1    
   130   66   67 am   BACKBONE|DICT|INTERRES
   131   66   68 2    
   132   67  132 1    
   133   67  133 1    
   134   69   70 1    
   135   69  134 1    
   136   69  135 1    
   137   70   71 1    
   138   71  136 1    
   139   71  137 1    
@<TRIPOS>SUBSTRUCTURE
     1 UNK         1 GROUP             0       ****    0 ROOT    
