@<TRIPOS>MOLECULE
3R136
137   139    1
SMALL
USER_CHARGES


@<TRIPOS>ATOM
      1 CA         28.9458   21.4121    4.2013 C.3       0 UNK        -0.1979 
      2 C          28.3374   21.5006    2.8103 C.2       0 UNK         0.4864 
      3 O          27.2064   21.0575    2.6054 O.2       0 UNK        -0.5359 
      4 N          29.0891   22.0566    1.8513 N.am      1 UNK        -0.4318 
      5 CA         28.6778   22.2473    0.4578 C.3       1 UNK         0.0824 
      6 C6         29.8599   22.6633   -0.4579 C.3       12 UNK        -0.0944 
      7 S7         31.3265   21.5888   -0.2872 S.3       12 UNK        -0.2672 
      8 C8         32.6978   22.8006   -0.3051 C.3       12 UNK         0.0333 
      9 C9         32.6148   23.8672    0.7870 C.ar      12 UNK        -0.0807 
     10 C10        32.8712   25.2059    0.4699 C.ar      12 UNK        -0.0894 
     11 C11        32.8190   26.1957    1.4562 C.ar      12 UNK        -0.0804 
     12 C12        32.4941   25.8418    2.7679 C.ar      12 UNK        -0.0824 
     13 C13        32.1991   24.5150    3.0937 C.ar      12 UNK        -0.0762 
     14 C14        32.2944   23.5288    2.1063 C.ar      12 UNK        -0.0782 
     15 C15        31.7660   24.1378    4.5061 C.3       12 UNK         0.0230 
     16 S16        30.3809   25.1396    5.1617 S.3       12 UNK        -0.2608 
     17 C17        29.2096   25.3042    3.7635 C.3       12 UNK        -0.0989 
     18 CA         29.1662   26.7547    3.2061 C.3       5 UNK         0.0716 
     19 N          28.8927   26.7788    1.7637 N.am      5 UNK        -0.4135 
     20 C          29.1859   27.8055    0.9556 C.2       4 UNK         0.5031 
     21 O          29.6993   28.8525    1.3471 O.2       4 UNK        -0.5229 
     22 CA         28.8035   27.6802   -0.5307 C.3       4 UNK         0.0329 
     23 CB         29.8668   26.8837   -1.3013 C.3       4 UNK        -0.2001 
     24 N          27.4804   27.1085   -0.8071 N.am      4 UNK        -0.4303 
     25 C          26.3137   27.4839   -0.2626 C.2       3 UNK         0.5044 
     26 O          26.2255   28.2861    0.6658 O.2       3 UNK        -0.5152 
     27 CA         25.0187   26.9054   -0.8686 C.3       3 UNK         0.0319 
     28 CB         24.1914   28.0399   -1.4962 C.3       3 UNK        -0.2001 
     29 N          25.2714   25.8926   -1.9019 N.am      3 UNK        -0.4354 
     30 C          25.4768   24.5752   -1.7542 C.2       2 UNK         0.4964 
     31 O          25.7820   23.8708   -2.7168 O.2       2 UNK        -0.5047 
     32 CA         25.3012   23.8949   -0.3820 C.3       2 UNK         0.0288 
     33 CB         23.9628   23.1406   -0.3234 C.3       2 UNK        -0.2113 
     34 N          26.3975   22.9522   -0.1627 N.am      2 UNK        -0.4145 
     35 C          27.5643   23.3077    0.3855 C.2       1 UNK         0.5006 
     36 O          27.7921   24.4381    0.8219 O.2       1 UNK        -0.5103 
     37 C          28.2323   27.6797    4.0226 C.2       5 UNK         0.5055 
     38 O          28.5483   27.9864    5.1717 O.2       5 UNK        -0.5220 
     39 N          27.1166   28.1348    3.4348 N.am      6 UNK        -0.4450 
     40 CA         26.2734   29.1883    4.0009 C.3       6 UNK         0.0367 
     41 CB         24.7941   28.8995    3.6936 C.3       6 UNK        -0.1929 
     42 C          26.6937   30.5585    3.4483 C.2       6 UNK         0.5070 
     43 O          26.8225   31.5083    4.2197 O.2       6 UNK        -0.5237 
     44 N          26.9022   30.6343    2.1263 N.am      7 UNK        -0.4739 
     45 CA         27.2113   31.8605    1.3880 C.3       7 UNK         0.0276 
     46 CB         27.0877   31.5885   -0.1201 C.3       7 UNK        -0.1927 
     47 C          28.5856   32.4644    1.7214 C.2       7 UNK         0.5013 
     48 O          28.6706   33.6738    1.9388 O.2       7 UNK        -0.5193 
     49 N          29.6286   31.6244    1.7513 N.am      8 UNK        -0.4253 
     50 CA         31.0125   32.0200    2.0342 C.3       8 UNK         0.0242 
     51 CB         31.9395   31.4003    0.9742 C.3       8 UNK        -0.2000 
     52 C          31.4563   31.6412    3.4581 C.2       8 UNK         0.4948 
     53 O          32.6097   31.9011    3.8085 O.2       8 UNK        -0.5275 
     54 N          30.5483   31.0561    4.2560 N.am      9 UNK        -0.4246 
     55 CA         30.7085   30.6840    5.6662 C.3       9 UNK         0.0261 
     56 CB         30.6786   31.9516    6.5513 C.3       9 UNK        -0.1959 
     57 C          31.9393   29.7841    5.8954 C.2       9 UNK         0.5033 
     58 O          31.9352   28.6318    5.4624 O.2       9 UNK        -0.5390 
     59 N          32.9776   30.3332    6.5415 N.am      10 UNK        -0.4215 
     60 CA         34.2623   29.6812    6.8107 C.3       10 UNK         0.0240 
     61 CB         35.0662   30.5539    7.7895 C.3       10 UNK        -0.1982 
     62 C          35.0994   29.3673    5.5539 C.2       10 UNK         0.4970 
     63 O          36.0534   28.5958    5.6623 O.2       10 UNK        -0.4916 
     64 N          34.7430   29.9526    4.4010 N.am      11 UNK        -0.4279 
     65 CA         35.3744   29.7321    3.0906 C.3       11 UNK         0.1003 
     66 C          36.7736   30.3984    2.9183 C.2       11 UNK         0.5709 
     67 N          37.1830   31.3085    3.7947 N.am      11 UNK        -0.7358 
     68 O          37.4915   30.1138    1.9625 O.2       11 UNK        -0.4999 
     69 C69        35.3358   28.2329    2.6565 C.3       12 UNK        -0.0954 
     70 S70        34.8452   28.0216    0.9153 S.3       12 UNK        -0.2268 
     71 C71        33.0735   27.6522    1.0966 C.3       12 UNK         0.0203 
     72 H72        30.0196   21.2359    4.1513 H         1 UNK         0.0888 
     73 H73        28.7673   22.3345    4.7531 H         1 UNK         0.0888 
     74 H74        28.5008   20.5894    4.7606 H         1 UNK         0.0888 
     75 H75        30.0067   22.4092    2.0736 H         1 UNK         0.3017 
     76 H76        28.2858   21.2945    0.0955 H         1 UNK         0.0873 
     77 H77        30.1560   23.6907   -0.2469 H         1 UNK         0.0745 
     78 H78        29.5502   22.6499   -1.5045 H         1 UNK         0.0745 
     79 H79        33.6399   22.2625   -0.1937 H         1 UNK         0.0705 
     80 H80        32.7251   23.2663   -1.2916 H         1 UNK         0.0705 
     81 H81        33.1188   25.4826   -0.5459 H         1 UNK         0.1334 
     82 H82        32.4371   26.6041    3.5340 H         1 UNK         0.1417 
     83 H83        32.1101   22.4940    2.3593 H         1 UNK         0.1562 
     84 H84        32.6204   24.2476    5.1751 H         1 UNK         0.0748 
     85 H85        31.4794   23.0875    4.5530 H         1 UNK         0.0748 
     86 H86        28.2193   24.9697    4.0784 H         1 UNK         0.0940 
     87 H87        29.5111   24.6091    2.9810 H         1 UNK         0.0940 
     88 H88        30.1606   27.1881    3.3247 H         1 UNK         0.0703 
     89 H89        28.4536   25.9465    1.3668 H         1 UNK         0.3081 
     90 H90        28.7908   28.6916   -0.9400 H         1 UNK         0.0719 
     91 H91        29.9504   25.8628   -0.9313 H         1 UNK         0.0809 
     92 H92        29.6394   26.8383   -2.3664 H         1 UNK         0.0809 
     93 H93        30.8475   27.3477   -1.2071 H         1 UNK         0.0809 
     94 H94        27.4425   26.4262   -1.5493 H         1 UNK         0.2990 
     95 H95        24.4177   26.4911   -0.0591 H         1 UNK         0.0690 
     96 H96        23.2501   27.6676   -1.9011 H         1 UNK         0.0788 
     97 H97        24.7309   28.5378   -2.3031 H         1 UNK         0.0788 
     98 H98        23.9424   28.8007   -0.7546 H         1 UNK         0.0788 
     99 H99        25.3571   26.2616   -2.8384 H         1 UNK         0.2993 
    100 H100       25.3118   24.6206    0.4302 H         1 UNK         0.0949 
    101 H101       23.1244   23.8268   -0.4511 H         1 UNK         0.0767 
    102 H102       23.8878   22.3838   -1.1056 H         1 UNK         0.0767 
    103 H103       23.8307   22.6431    0.6378 H         1 UNK         0.0767 
    104 H104       26.2808   22.0212   -0.5362 H         1 UNK         0.3013 
    105 H105       26.9267   27.8798    2.4711 H         1 UNK         0.3121 
    106 H106       26.3818   29.2170    5.0874 H         1 UNK         0.0774 
    107 H107       24.1514   29.6594    4.1399 H         1 UNK         0.0815 
    108 H108       24.5878   28.8902    2.6233 H         1 UNK         0.0815 
    109 H109       24.4873   27.9363    4.1012 H         1 UNK         0.0815 
    110 H110       26.7397   29.7995    1.5671 H         1 UNK         0.2987 
    111 H111       26.4567   32.6026    1.6581 H         1 UNK         0.0949 
    112 H112       27.8009   30.8349   -0.4540 H         1 UNK         0.0806 
    113 H113       26.0880   31.2393   -0.3797 H         1 UNK         0.0806 
    114 H114       27.2752   32.4947   -0.6976 H         1 UNK         0.0806 
    115 H115       29.4813   30.6316    1.5672 H         1 UNK         0.3010 
    116 H116       31.1141   33.1047    1.9619 H         1 UNK         0.0829 
    117 H117       31.6709   31.7354   -0.0275 H         1 UNK         0.0813 
    118 H118       32.9791   31.6850    1.1411 H         1 UNK         0.0813 
    119 H119       31.8917   30.3133    0.9834 H         1 UNK         0.0813 
    120 H120       29.6417   30.8627    3.8557 H         1 UNK         0.3038 
    121 H121       29.8387   30.0848    5.9338 H         1 UNK         0.0769 
    122 H122       31.4751   32.6538    6.3022 H         1 UNK         0.0811 
    123 H123       30.7694   31.6992    7.6088 H         1 UNK         0.0811 
    124 H124       29.7326   32.4807    6.4340 H         1 UNK         0.0811 
    125 H125       32.8937   31.2983    6.8261 H         1 UNK         0.3204 
    126 H126       34.0512   28.7265    7.2970 H         1 UNK         0.0748 
    127 H127       36.0167   30.0829    8.0449 H         1 UNK         0.0771 
    128 H128       35.2917   31.5335    7.3661 H         1 UNK         0.0771 
    129 H129       34.5241   30.7069    8.7230 H         1 UNK         0.0771 
    130 H130       33.9630   30.6040    4.3976 H         1 UNK         0.2980 
    131 H131       34.7311   30.2934    2.4126 H         1 UNK         0.0545 
    132 H132       38.0840   31.7427    3.6716 H         1 UNK         0.3459 
    133 H133       36.5996   31.5639    4.5747 H         1 UNK         0.3459 
    134 H134       34.6351   27.6678    3.2714 H         1 UNK         0.0616 
    135 H135       36.3008   27.7477    2.8128 H         1 UNK         0.0616 
    136 H136       32.5750   27.8910    0.1583 H         1 UNK         0.0634 
    137 H137       32.6375   28.3109    1.8494 H         1 UNK         0.0634 
@<TRIPOS>BOND
     1    1    2 1    
     2    1   72 1    
     3    1   73 1    
     4    1   74 1    
     5    2    3 2    
     6    2    4 am   BACKBONE|DICT|INTERRES
     7    4    5 1    
     8    4   75 1    
     9    5    6 1    
    10    5   35 1    
    11    5   76 1    
    12    6    7 1    
    13    6   77 1    
    14    6   78 1    
    15    7    8 1    
    16    8    9 1    
    17    8   79 1    
    18    8   80 1    
    19    9   10 ar   
    20    9   14 ar   
    21   10   11 ar   
    22   10   81 1    
    23   11   12 ar   
    24   11   71 1    
    25   12   13 ar   
    26   12   82 1    
    27   13   14 ar   
    28   13   15 1    
    29   14   83 1    
    30   15   16 1    
    31   15   84 1    
    32   15   85 1    
    33   16   17 1    
    34   17   18 1    
    35   17   86 1    
    36   17   87 1    
    37   18   19 1    
    38   18   37 1    
    39   18   88 1    
    40   19   20 am   BACKBONE|DICT|INTERRES
    41   19   89 1    
    42   20   21 2    
    43   20   22 1    
    44   22   23 1    
    45   22   24 1    
    46   22   90 1    
    47   23   91 1    
    48   23   92 1    
    49   23   93 1    
    50   24   25 am   BACKBONE|DICT|INTERRES
    51   24   94 1    
    52   25   26 2    
    53   25   27 1    
    54   27   28 1    
    55   27   29 1    
    56   27   95 1    
    57   28   96 1    
    58   28   97 1    
    59   28   98 1    
    60   29   30 am   BACKBONE|DICT|INTERRES
    61   29   99 1    
    62   30   31 2    
    63   30   32 1    
    64   32   33 1    
    65   32   34 1    
    66   32  100 1    
    67   33  101 1    
    68   33  102 1    
    69   33  103 1    
    70   34   35 am   BACKBONE|DICT|INTERRES
    71   34  104 1    
    72   35   36 2    
    73   37   38 2    
    74   37   39 am   BACKBONE|DICT|INTERRES
    75   39   40 1    
    76   39  105 1    
    77   40   41 1    
    78   40   42 1    
    79   40  106 1    
    80   41  107 1    
    81   41  108 1    
    82   41  109 1    
    83   42   43 2    
    84   42   44 am   BACKBONE|DICT|INTERRES
    85   44   45 1    
    86   44  110 1    
    87   45   46 1    
    88   45   47 1    
    89   45  111 1    
    90   46  112 1    
    91   46  113 1    
    92   46  114 1    
    93   47   48 2    
    94   47   49 am   BACKBONE|DICT|INTERRES
    95   49   50 1    
    96   49  115 1    
    97   50   51 1    
    98   50   52 1    
    99   50  116 1    
   100   51  117 1    
   101   51  118 1    
   102   51  119 1    
   103   52   53 2    
   104   52   54 am   BACKBONE|DICT|INTERRES
   105   54   55 1    
   106   54  120 1    
   107   55   56 1    
   108   55   57 1    
   109   55  121 1    
   110   56  122 1    
   111   56  123 1    
   112   56  124 1    
   113   57   58 2    
   114   57   59 am   BACKBONE|DICT|INTERRES
   115   59   60 1    
   116   59  125 1    
   117   60   61 1    
   118   60   62 1    
   119   60  126 1    
   120   61  127 1    
   121   61  128 1    
   122   61  129 1    
   123   62   63 2    
   124   62   64 am   BACKBONE|DICT|INTERRES
   125   64   65 1    
   126   64  130 1    
   127   65   66 1    
   128   65   69 1    
   129   65  131 1    
   130   66   67 am   BACKBONE|DICT|INTERRES
   131   66   68 2    
   132   67  132 1    
   133   67  133 1    
   134   69   70 1    
   135   69  134 1    
   136   69  135 1    
   137   70   71 1    
   138   71  136 1    
   139   71  137 1    
@<TRIPOS>SUBSTRUCTURE
     1 UNK         1 GROUP             0       ****    0 ROOT    
