@<TRIPOS>MOLECULE
3R136
137   139    1
SMALL
USER_CHARGES


@<TRIPOS>ATOM
      1 CA         29.2925   17.6845   -1.6614 C.3       0 UNK        -0.1979 
      2 C          28.6489   18.7332   -0.7658 C.2       0 UNK         0.4864 
      3 O          27.7138   18.4114   -0.0322 O.2       0 UNK        -0.5359 
      4 N          29.1495   19.9763   -0.8250 N.am      1 UNK        -0.4318 
      5 CA         28.6790   21.1505   -0.0799 C.3       1 UNK         0.0824 
      6 C6         28.8919   21.0265    1.4544 C.3       12 UNK        -0.0944 
      7 S7         28.9536   22.6633    2.2620 S.3       12 UNK        -0.2672 
      8 C8         30.7133   22.7658    2.7127 C.3       12 UNK         0.0333 
      9 C9         31.0638   24.1375    3.2690 C.ar      12 UNK        -0.0807 
     10 C10        31.9027   24.9983    2.5551 C.ar      12 UNK        -0.0894 
     11 C11        32.2314   26.2559    3.0681 C.ar      12 UNK        -0.0804 
     12 C12        31.7197   26.6487    4.3087 C.ar      12 UNK        -0.0824 
     13 C13        30.8586   25.8080    5.0199 C.ar      12 UNK        -0.0762 
     14 C14        30.5468   24.5476    4.5013 C.ar      12 UNK        -0.0782 
     15 C15        30.2395   26.2669    6.3349 C.3       12 UNK         0.0230 
     16 S16        29.1901   27.7504    6.1473 S.3       12 UNK        -0.2608 
     17 C17        28.1266   27.3208    4.7247 C.3       12 UNK        -0.0989 
     18 CA         28.6081   28.0186    3.4223 C.3       5 UNK         0.0716 
     19 N          28.5010   27.1392    2.2530 N.am      5 UNK        -0.4135 
     20 C          29.0479   27.3887    1.0540 C.2       4 UNK         0.5031 
     21 O          29.7575   28.3675    0.8209 O.2       4 UNK        -0.5229 
     22 CA         28.6977   26.4303   -0.0999 C.3       4 UNK         0.0329 
     23 CB         29.8505   25.4523   -0.3728 C.3       4 UNK        -0.2001 
     24 N          27.4492   25.6767    0.0752 N.am      4 UNK        -0.4303 
     25 C          26.2262   26.2152    0.2013 C.2       3 UNK         0.5044 
     26 O          26.0313   27.4267    0.3053 O.2       3 UNK        -0.5152 
     27 CA         25.0317   25.2395    0.2485 C.3       3 UNK         0.0319 
     28 CB         23.7040   25.9056   -0.1712 C.3       3 UNK        -0.2001 
     29 N          25.2581   23.9974   -0.5037 N.am      3 UNK        -0.4354 
     30 C          25.4844   23.8574   -1.8190 C.2       2 UNK         0.4964 
     31 O          25.5033   24.7937   -2.6194 O.2       2 UNK        -0.5047 
     32 CA         25.7903   22.4229   -2.3003 C.3       2 UNK         0.0288 
     33 CB         25.8463   22.3102   -3.8358 C.3       2 UNK        -0.2113 
     34 N          27.0543   21.9280   -1.7436 N.am      2 UNK        -0.4145 
     35 C          27.2345   21.5310   -0.4758 C.2       1 UNK         0.5006 
     36 O          26.3172   21.4769    0.3480 O.2       1 UNK        -0.5103 
     37 C          27.9429   29.4000    3.2190 C.2       5 UNK         0.5055 
     38 O          28.3141   30.3485    3.9129 O.2       5 UNK        -0.5220 
     39 N          27.0199   29.5187    2.2474 N.am      6 UNK        -0.4450 
     40 CA         26.3915   30.7806    1.8404 C.3       6 UNK         0.0367 
     41 CB         25.2901   30.5020    0.8061 C.3       6 UNK        -0.1929 
     42 C          27.3843   31.8252    1.2961 C.2       6 UNK         0.5070 
     43 O          27.0808   33.0180    1.3451 O.2       6 UNK        -0.5237 
     44 N          28.5704   31.3905    0.8424 N.am      7 UNK        -0.4739 
     45 CA         29.7022   32.2485    0.4803 C.3       7 UNK         0.0276 
     46 CB         30.6468   31.4652   -0.4502 C.3       7 UNK        -0.1927 
     47 C          30.4230   32.7902    1.7333 C.2       7 UNK         0.5013 
     48 O          31.6168   32.5441    1.9143 O.2       7 UNK        -0.5193 
     49 N          29.6662   33.4851    2.5968 N.am      8 UNK        -0.4253 
     50 CA         30.0768   34.1702    3.8317 C.3       8 UNK         0.0242 
     51 CB         30.8510   35.4560    3.4712 C.3       8 UNK        -0.2000 
     52 C          30.8520   33.2964    4.8430 C.2       8 UNK         0.4948 
     53 O          31.6250   33.8387    5.6353 O.2       8 UNK        -0.5275 
     54 N          30.6594   31.9683    4.7850 N.am      9 UNK        -0.4246 
     55 CA         31.4121   30.9309    5.5008 C.3       9 UNK         0.0261 
     56 CB         31.0214   30.9140    6.9930 C.3       9 UNK        -0.1959 
     57 C          32.9408   31.0123    5.2832 C.2       9 UNK         0.5033 
     58 O          33.7025   30.7131    6.2057 O.2       9 UNK        -0.5390 
     59 N          33.3696   31.4089    4.0715 N.am      10 UNK        -0.4215 
     60 CA         34.7650   31.7003    3.7034 C.3       10 UNK         0.0240 
     61 CB         34.8132   32.1893    2.2465 C.3       10 UNK        -0.1982 
     62 C          35.7778   30.5579    3.9138 C.2       10 UNK         0.4970 
     63 O          36.9751   30.8323    4.0088 O.2       10 UNK        -0.4916 
     64 N          35.2925   29.3142    3.9946 N.am      11 UNK        -0.4279 
     65 CA         36.0776   28.1265    4.3599 C.3       11 UNK         0.1003 
     66 C          36.5476   28.1060    5.8453 C.2       11 UNK         0.5709 
     67 N          35.9773   28.9058    6.7407 N.am      11 UNK        -0.7358 
     68 O          37.4534   27.3501    6.1889 O.2       11 UNK        -0.4999 
     69 C69        35.3259   26.8152    4.0157 C.3       12 UNK        -0.0954 
     70 S70        34.8612   26.6822    2.2547 S.3       12 UNK        -0.2268 
     71 C71        33.1140   27.2008    2.2659 C.3       12 UNK         0.0203 
     72 H72        28.5526   17.2710   -2.3462 H         1 UNK         0.0888 
     73 H73        30.1089   18.0972   -2.2539 H         1 UNK         0.0888 
     74 H74        29.6911   16.8696   -1.0577 H         1 UNK         0.0888 
     75 H75        29.9187   20.1531   -1.4569 H         1 UNK         0.3017 
     76 H76        29.3123   21.9693   -0.4264 H         1 UNK         0.0873 
     77 H77        28.1119   20.4223    1.9215 H         1 UNK         0.0745 
     78 H78        29.8260   20.5010    1.6586 H         1 UNK         0.0745 
     79 H79        30.9427   22.0018    3.4571 H         1 UNK         0.0705 
     80 H80        31.3223   22.5408    1.8356 H         1 UNK         0.0705 
     81 H81        32.3021   24.6940    1.5972 H         1 UNK         0.1334 
     82 H82        31.9615   27.6224    4.7107 H         1 UNK         0.1417 
     83 H83        29.8846   23.8872    5.0448 H         1 UNK         0.1562 
     84 H84        31.0352   26.4847    7.0485 H         1 UNK         0.0748 
     85 H85        29.6392   25.4712    6.7788 H         1 UNK         0.0748 
     86 H86        27.0926   27.5785    4.9636 H         1 UNK         0.0940 
     87 H87        28.1284   26.2357    4.6131 H         1 UNK         0.0940 
     88 H88        29.6737   28.2319    3.5161 H         1 UNK         0.0703 
     89 H89        27.9365   26.3095    2.3551 H         1 UNK         0.3081 
     90 H90        28.5709   27.0519   -0.9887 H         1 UNK         0.0719 
     91 H91        30.7944   25.9846   -0.5002 H         1 UNK         0.0809 
     92 H92        29.6780   24.8792   -1.2839 H         1 UNK         0.0809 
     93 H93        29.9822   24.7483    0.4468 H         1 UNK         0.0809 
     94 H94        27.5177   24.6714    0.0288 H         1 UNK         0.2990 
     95 H95        24.9323   24.9432    1.2937 H         1 UNK         0.0690 
     96 H96        22.8723   25.2033   -0.1160 H         1 UNK         0.0788 
     97 H97        23.7496   26.2936   -1.1893 H         1 UNK         0.0788 
     98 H98        23.4618   26.7439    0.4834 H         1 UNK         0.0788 
     99 H99        25.3296   23.1515    0.0568 H         1 UNK         0.2993 
    100 H100       24.9767   21.7827   -1.9511 H         1 UNK         0.0949 
    101 H101       25.9970   21.2778   -4.1520 H         1 UNK         0.0767 
    102 H102       24.9132   22.6519   -4.2862 H         1 UNK         0.0767 
    103 H103       26.6523   22.9119   -4.2581 H         1 UNK         0.0767 
    104 H104       27.8517   21.9464   -2.3631 H         1 UNK         0.3013 
    105 H105       26.7729   28.7025    1.6950 H         1 UNK         0.3121 
    106 H106       25.9240   31.2123    2.7279 H         1 UNK         0.0774 
    107 H107       25.6998   30.0876   -0.1159 H         1 UNK         0.0815 
    108 H108       24.7604   31.4187    0.5434 H         1 UNK         0.0815 
    109 H109       24.5505   29.7991    1.1900 H         1 UNK         0.0815 
    110 H110       28.7596   30.3951    0.8653 H         1 UNK         0.2987 
    111 H111       29.3282   33.1113   -0.0753 H         1 UNK         0.0949 
    112 H112       31.0817   30.5998    0.0516 H         1 UNK         0.0806 
    113 H113       30.1258   31.1099   -1.3393 H         1 UNK         0.0806 
    114 H114       31.4721   32.0938   -0.7872 H         1 UNK         0.0806 
    115 H115       28.6824   33.5691    2.3550 H         1 UNK         0.3010 
    116 H116       29.1558   34.4651    4.3364 H         1 UNK         0.0829 
    117 H117       31.8115   35.2276    3.0073 H         1 UNK         0.0813 
    118 H118       30.2849   36.0805    2.7802 H         1 UNK         0.0813 
    119 H119       31.0514   36.0598    4.3572 H         1 UNK         0.0813 
    120 H120       29.9437   31.6192    4.1549 H         1 UNK         0.3038 
    121 H121       31.0965   29.9811    5.0680 H         1 UNK         0.0769 
    122 H122       31.4704   30.0624    7.5057 H         1 UNK         0.0811 
    123 H123       31.3509   31.8172    7.5074 H         1 UNK         0.0811 
    124 H124       29.9417   30.8296    7.1167 H         1 UNK         0.0811 
    125 H125       32.6721   31.6710    3.3785 H         1 UNK         0.3204 
    126 H126       35.0914   32.5218    4.3441 H         1 UNK         0.0748 
    127 H127       35.8366   32.3989    1.9318 H         1 UNK         0.0771 
    128 H128       34.4038   31.4476    1.5594 H         1 UNK         0.0771 
    129 H129       34.2464   33.1120    2.1207 H         1 UNK         0.0771 
    130 H130       34.2974   29.1851    3.9170 H         1 UNK         0.2980 
    131 H131       36.9875   28.1484    3.7571 H         1 UNK         0.0545 
    132 H132       35.2211   29.5327    6.4801 H         1 UNK         0.3459 
    133 H133       36.2975   28.8807    7.6952 H         1 UNK         0.3459 
    134 H134       35.9576   25.9534    4.2387 H         1 UNK         0.0616 
    135 H135       34.4449   26.7042    4.6473 H         1 UNK         0.0616 
    136 H136       33.0349   28.2207    2.6431 H         1 UNK         0.0634 
    137 H137       32.7532   27.2351    1.2367 H         1 UNK         0.0634 
@<TRIPOS>BOND
     1    1    2 1    
     2    1   72 1    
     3    1   73 1    
     4    1   74 1    
     5    2    3 2    
     6    2    4 am   BACKBONE|DICT|INTERRES
     7    4    5 1    
     8    4   75 1    
     9    5    6 1    
    10    5   35 1    
    11    5   76 1    
    12    6    7 1    
    13    6   77 1    
    14    6   78 1    
    15    7    8 1    
    16    8    9 1    
    17    8   79 1    
    18    8   80 1    
    19    9   10 ar   
    20    9   14 ar   
    21   10   11 ar   
    22   10   81 1    
    23   11   12 ar   
    24   11   71 1    
    25   12   13 ar   
    26   12   82 1    
    27   13   14 ar   
    28   13   15 1    
    29   14   83 1    
    30   15   16 1    
    31   15   84 1    
    32   15   85 1    
    33   16   17 1    
    34   17   18 1    
    35   17   86 1    
    36   17   87 1    
    37   18   19 1    
    38   18   37 1    
    39   18   88 1    
    40   19   20 am   BACKBONE|DICT|INTERRES
    41   19   89 1    
    42   20   21 2    
    43   20   22 1    
    44   22   23 1    
    45   22   24 1    
    46   22   90 1    
    47   23   91 1    
    48   23   92 1    
    49   23   93 1    
    50   24   25 am   BACKBONE|DICT|INTERRES
    51   24   94 1    
    52   25   26 2    
    53   25   27 1    
    54   27   28 1    
    55   27   29 1    
    56   27   95 1    
    57   28   96 1    
    58   28   97 1    
    59   28   98 1    
    60   29   30 am   BACKBONE|DICT|INTERRES
    61   29   99 1    
    62   30   31 2    
    63   30   32 1    
    64   32   33 1    
    65   32   34 1    
    66   32  100 1    
    67   33  101 1    
    68   33  102 1    
    69   33  103 1    
    70   34   35 am   BACKBONE|DICT|INTERRES
    71   34  104 1    
    72   35   36 2    
    73   37   38 2    
    74   37   39 am   BACKBONE|DICT|INTERRES
    75   39   40 1    
    76   39  105 1    
    77   40   41 1    
    78   40   42 1    
    79   40  106 1    
    80   41  107 1    
    81   41  108 1    
    82   41  109 1    
    83   42   43 2    
    84   42   44 am   BACKBONE|DICT|INTERRES
    85   44   45 1    
    86   44  110 1    
    87   45   46 1    
    88   45   47 1    
    89   45  111 1    
    90   46  112 1    
    91   46  113 1    
    92   46  114 1    
    93   47   48 2    
    94   47   49 am   BACKBONE|DICT|INTERRES
    95   49   50 1    
    96   49  115 1    
    97   50   51 1    
    98   50   52 1    
    99   50  116 1    
   100   51  117 1    
   101   51  118 1    
   102   51  119 1    
   103   52   53 2    
   104   52   54 am   BACKBONE|DICT|INTERRES
   105   54   55 1    
   106   54  120 1    
   107   55   56 1    
   108   55   57 1    
   109   55  121 1    
   110   56  122 1    
   111   56  123 1    
   112   56  124 1    
   113   57   58 2    
   114   57   59 am   BACKBONE|DICT|INTERRES
   115   59   60 1    
   116   59  125 1    
   117   60   61 1    
   118   60   62 1    
   119   60  126 1    
   120   61  127 1    
   121   61  128 1    
   122   61  129 1    
   123   62   63 2    
   124   62   64 am   BACKBONE|DICT|INTERRES
   125   64   65 1    
   126   64  130 1    
   127   65   66 1    
   128   65   69 1    
   129   65  131 1    
   130   66   67 am   BACKBONE|DICT|INTERRES
   131   66   68 2    
   132   67  132 1    
   133   67  133 1    
   134   69   70 1    
   135   69  134 1    
   136   69  135 1    
   137   70   71 1    
   138   71  136 1    
   139   71  137 1    
@<TRIPOS>SUBSTRUCTURE
     1 UNK         1 GROUP             0       ****    0 ROOT    
