@<TRIPOS>MOLECULE
3R136
137   139    1
SMALL
USER_CHARGES


@<TRIPOS>ATOM
      1 CA         30.2172   23.6549    2.4591 C.3       0 UNK        -0.1979 
      2 C          29.6430   25.0199    2.1227 C.2       0 UNK         0.4864 
      3 O          28.4402   25.1319    1.8778 O.2       0 UNK        -0.5359 
      4 N          30.4641   26.0786    2.1073 N.am      1 UNK        -0.4318 
      5 CA         30.0509   27.4596    1.8108 C.3       1 UNK         0.0824 
      6 C6         31.2008   28.3222    1.2352 C.3       12 UNK        -0.0944 
      7 S7         32.7448   28.2987    2.2090 S.3       12 UNK        -0.2672 
      8 C8         33.9121   27.6213    0.9808 C.3       12 UNK         0.0333 
      9 C9         33.7459   26.1166    0.8535 C.ar      12 UNK        -0.0807 
     10 C10        34.2136   25.2851    1.8711 C.ar      12 UNK        -0.0894 
     11 C11        34.0074   23.9014    1.8186 C.ar      12 UNK        -0.0804 
     12 C12        33.3474   23.3574    0.7090 C.ar      12 UNK        -0.0824 
     13 C13        32.8904   24.1774   -0.3293 C.ar      12 UNK        -0.0762 
     14 C14        33.1092   25.5569   -0.2562 C.ar      12 UNK        -0.0782 
     15 C15        32.1763   23.5729   -1.5357 C.3       12 UNK         0.0230 
     16 S16        30.3558   23.6268   -1.3847 S.3       12 UNK        -0.2608 
     17 C17        30.0585   25.4193   -1.5162 C.3       12 UNK        -0.0989 
     18 CA         28.5921   25.8442   -1.7967 C.3       5 UNK         0.0716 
     19 N          27.6410   25.2756   -0.8315 N.am      5 UNK        -0.4135 
     20 C          26.4247   24.8058   -1.1351 C.2       4 UNK         0.5031 
     21 O          25.9638   24.7925   -2.2769 O.2       4 UNK        -0.5229 
     22 CA         25.5499   24.3287    0.0349 C.3       4 UNK         0.0329 
     23 CB         26.1096   23.0625    0.7074 C.3       4 UNK        -0.2001 
     24 N          25.3460   25.4073    1.0115 N.am      4 UNK        -0.4303 
     25 C          24.3822   26.3329    0.8787 C.2       3 UNK         0.5044 
     26 O          23.5634   26.3206   -0.0418 O.2       3 UNK        -0.5152 
     27 CA         24.2942   27.4867    1.8918 C.3       3 UNK         0.0319 
     28 CB         23.0187   27.4085    2.7570 C.3       3 UNK        -0.2001 
     29 N          25.5159   27.7335    2.6666 N.am      3 UNK        -0.4354 
     30 C          25.8950   27.2653    3.8638 C.2       2 UNK         0.4964 
     31 O          25.2766   26.4228    4.5146 O.2       2 UNK        -0.5047 
     32 CA         27.2268   27.8241    4.3885 C.3       2 UNK         0.0288 
     33 CB         27.5800   27.3523    5.8111 C.3       2 UNK        -0.2113 
     34 N          28.2598   27.3978    3.4607 N.am      2 UNK        -0.4145 
     35 C          29.2599   28.1251    2.9612 C.2       1 UNK         0.5006 
     36 O          29.5304   29.2682    3.3362 O.2       1 UNK        -0.5103 
     37 C          28.4645   27.3858   -1.8138 C.2       5 UNK         0.5055 
     38 O          29.4797   28.0798   -1.7285 O.2       5 UNK        -0.5220 
     39 N          27.2277   27.9025   -1.8703 N.am      6 UNK        -0.4450 
     40 CA         26.8651   29.3119   -1.6598 C.3       6 UNK         0.0367 
     41 CB         27.4465   30.2225   -2.7659 C.3       6 UNK        -0.1929 
     42 C          27.2015   29.7630   -0.2218 C.2       6 UNK         0.5070 
     43 O          27.0491   28.9585    0.6988 O.2       6 UNK        -0.5237 
     44 N          27.6152   31.0208   -0.0293 N.am      7 UNK        -0.4739 
     45 CA         27.9224   31.5943    1.2805 C.3       7 UNK         0.0276 
     46 CB         26.8474   32.6320    1.6458 C.3       7 UNK        -0.1927 
     47 C          29.3165   32.2330    1.2611 C.2       7 UNK         0.5013 
     48 O          29.5701   33.1055    0.4278 O.2       7 UNK        -0.5193 
     49 N          30.1684   31.8089    2.2002 N.am      8 UNK        -0.4253 
     50 CA         31.4876   32.3782    2.5020 C.3       8 UNK         0.0242 
     51 CB         32.5186   32.0420    1.4066 C.3       8 UNK        -0.2000 
     52 C          31.9931   31.9752    3.9017 C.2       8 UNK         0.4948 
     53 O          32.8476   32.6762    4.4440 O.2       8 UNK        -0.5275 
     54 N          31.4428   30.8943    4.4795 N.am      9 UNK        -0.4246 
     55 CA         31.5991   30.4321    5.8633 C.3       9 UNK         0.0261 
     56 CB         31.0594   31.4814    6.8596 C.3       9 UNK        -0.1959 
     57 C          33.0029   29.9189    6.2371 C.2       9 UNK         0.5033 
     58 O          33.3374   29.8999    7.4236 O.2       9 UNK        -0.5390 
     59 N          33.7890   29.4639    5.2496 N.am      10 UNK        -0.4215 
     60 CA         35.0541   28.7549    5.4888 C.3       10 UNK         0.0240 
     61 CB         35.9119   28.7527    4.2154 C.3       10 UNK        -0.1982 
     62 C          34.8197   27.3180    5.9937 C.2       10 UNK         0.4970 
     63 O          35.6064   26.8280    6.8045 O.2       10 UNK        -0.4916 
     64 N          33.7269   26.6988    5.5328 N.am      11 UNK        -0.4279 
     65 CA         33.1441   25.4635    6.0678 C.3       11 UNK         0.1003 
     66 C          31.7006   25.7657    6.5433 C.2       11 UNK         0.5709 
     67 N          31.2265   25.0769    7.5717 N.am      11 UNK        -0.7358 
     68 O          30.9985   26.5950    5.9671 O.2       11 UNK        -0.4999 
     69 C69        33.1302   24.3190    5.0222 C.3       12 UNK        -0.0954 
     70 S70        34.7998   23.7558    4.5544 S.3       12 UNK        -0.2268 
     71 C71        34.4778   22.9651    2.9351 C.3       12 UNK         0.0203 
     72 H72        31.2990   23.6799    2.5491 H         1 UNK         0.0888 
     73 H73        29.8030   23.2954    3.4004 H         1 UNK         0.0888 
     74 H74        29.9621   22.9403    1.6771 H         1 UNK         0.0888 
     75 H75        31.4481   25.9617    2.3066 H         1 UNK         0.3017 
     76 H76        29.3159   27.4015    1.0066 H         1 UNK         0.0873 
     77 H77        30.8804   29.3547    1.0966 H         1 UNK         0.0745 
     78 H78        31.4189   27.9741    0.2258 H         1 UNK         0.0745 
     79 H79        34.9350   27.8481    1.2798 H         1 UNK         0.0705 
     80 H80        33.7688   28.1177    0.0198 H         1 UNK         0.0705 
     81 H81        34.7183   25.7340    2.7144 H         1 UNK         0.1334 
     82 H82        33.1824   22.2897    0.6560 H         1 UNK         0.1417 
     83 H83        32.7666   26.1998   -1.0549 H         1 UNK         0.1562 
     84 H84        32.4815   22.5333   -1.6635 H         1 UNK         0.0748 
     85 H85        32.4826   24.0872   -2.4479 H         1 UNK         0.0748 
     86 H86        30.7037   25.8058   -2.3076 H         1 UNK         0.0940 
     87 H87        30.4076   25.8741   -0.5924 H         1 UNK         0.0940 
     88 H88        28.3430   25.4975   -2.8017 H         1 UNK         0.0703 
     89 H89        27.9359   25.2589    0.1432 H         1 UNK         0.3081 
     90 H90        24.5812   24.0445   -0.3824 H         1 UNK         0.0719 
     91 H91        27.1102   23.1995    1.1107 H         1 UNK         0.0809 
     92 H92        25.4653   22.7315    1.5218 H         1 UNK         0.0809 
     93 H93        26.1679   22.2430   -0.0100 H         1 UNK         0.0809 
     94 H94        26.0108   25.4826    1.7692 H         1 UNK         0.2990 
     95 H95        24.1921   28.3853    1.2810 H         1 UNK         0.0690 
     96 H96        22.9498   28.2505    3.4458 H         1 UNK         0.0788 
     97 H97        22.9762   26.4878    3.3391 H         1 UNK         0.0788 
     98 H98        22.1258   27.4293    2.1309 H         1 UNK         0.0788 
     99 H99        26.1775   28.3287    2.1673 H         1 UNK         0.2993 
    100 H100       27.1493   28.9138    4.3891 H         1 UNK         0.0949 
    101 H101       28.5095   27.8071    6.1543 H         1 UNK         0.0767 
    102 H102       26.7999   27.6294    6.5210 H         1 UNK         0.0767 
    103 H103       27.7024   26.2695    5.8584 H         1 UNK         0.0767 
    104 H104       28.1270   26.4776    3.0453 H         1 UNK         0.3013 
    105 H105       26.4537   27.2540   -1.9213 H         1 UNK         0.3121 
    106 H106       25.7779   29.3552   -1.7376 H         1 UNK         0.0774 
    107 H107       27.0079   31.2202   -2.7274 H         1 UNK         0.0815 
    108 H108       28.5282   30.3343   -2.6824 H         1 UNK         0.0815 
    109 H109       27.2318   29.8219   -3.7565 H         1 UNK         0.0815 
    110 H110       27.7845   31.6205   -0.8255 H         1 UNK         0.2987 
    111 H111       27.9045   30.8232    2.0521 H         1 UNK         0.0949 
    112 H112       26.7966   33.4382    0.9129 H         1 UNK         0.0806 
    113 H113       25.8605   32.1729    1.7072 H         1 UNK         0.0806 
    114 H114       27.0553   33.0846    2.6163 H         1 UNK         0.0806 
    115 H115       29.8545   31.0550    2.8037 H         1 UNK         0.3010 
    116 H116       31.3712   33.4638    2.5280 H         1 UNK         0.0829 
    117 H117       32.2385   32.4768    0.4474 H         1 UNK         0.0813 
    118 H118       33.5021   32.4388    1.6615 H         1 UNK         0.0813 
    119 H119       32.6297   30.9703    1.2634 H         1 UNK         0.0813 
    120 H120       30.7993   30.3171    3.9411 H         1 UNK         0.3038 
    121 H121       30.9507   29.5575    5.9428 H         1 UNK         0.0769 
    122 H122       31.6916   32.3691    6.8935 H         1 UNK         0.0811 
    123 H123       31.0141   31.0767    7.8713 H         1 UNK         0.0811 
    124 H124       30.0500   31.7965    6.5955 H         1 UNK         0.0811 
    125 H125       33.4539   29.5157    4.2965 H         1 UNK         0.3204 
    126 H126       35.6072   29.2947    6.2606 H         1 UNK         0.0748 
    127 H127       36.9115   28.3702    4.4255 H         1 UNK         0.0771 
    128 H128       35.4825   28.1159    3.4454 H         1 UNK         0.0771 
    129 H129       36.0265   29.7561    3.8049 H         1 UNK         0.0771 
    130 H130       33.1181   27.2066    4.9073 H         1 UNK         0.2980 
    131 H131       33.7141   25.1322    6.9380 H         1 UNK         0.0545 
    132 H132       31.7883   24.3860    8.0441 H         1 UNK         0.3459 
    133 H133       30.2851   25.2555    7.8833 H         1 UNK         0.3459 
    134 H134       32.5971   24.6474    4.1313 H         1 UNK         0.0616 
    135 H135       32.5893   23.4510    5.4041 H         1 UNK         0.0616 
    136 H136       35.3952   22.4754    2.6067 H         1 UNK         0.0634 
    137 H137       33.7409   22.1744    3.0852 H         1 UNK         0.0634 
@<TRIPOS>BOND
     1    1    2 1    
     2    1   72 1    
     3    1   73 1    
     4    1   74 1    
     5    2    3 2    
     6    2    4 am   BACKBONE|DICT|INTERRES
     7    4    5 1    
     8    4   75 1    
     9    5    6 1    
    10    5   35 1    
    11    5   76 1    
    12    6    7 1    
    13    6   77 1    
    14    6   78 1    
    15    7    8 1    
    16    8    9 1    
    17    8   79 1    
    18    8   80 1    
    19    9   10 ar   
    20    9   14 ar   
    21   10   11 ar   
    22   10   81 1    
    23   11   12 ar   
    24   11   71 1    
    25   12   13 ar   
    26   12   82 1    
    27   13   14 ar   
    28   13   15 1    
    29   14   83 1    
    30   15   16 1    
    31   15   84 1    
    32   15   85 1    
    33   16   17 1    
    34   17   18 1    
    35   17   86 1    
    36   17   87 1    
    37   18   19 1    
    38   18   37 1    
    39   18   88 1    
    40   19   20 am   BACKBONE|DICT|INTERRES
    41   19   89 1    
    42   20   21 2    
    43   20   22 1    
    44   22   23 1    
    45   22   24 1    
    46   22   90 1    
    47   23   91 1    
    48   23   92 1    
    49   23   93 1    
    50   24   25 am   BACKBONE|DICT|INTERRES
    51   24   94 1    
    52   25   26 2    
    53   25   27 1    
    54   27   28 1    
    55   27   29 1    
    56   27   95 1    
    57   28   96 1    
    58   28   97 1    
    59   28   98 1    
    60   29   30 am   BACKBONE|DICT|INTERRES
    61   29   99 1    
    62   30   31 2    
    63   30   32 1    
    64   32   33 1    
    65   32   34 1    
    66   32  100 1    
    67   33  101 1    
    68   33  102 1    
    69   33  103 1    
    70   34   35 am   BACKBONE|DICT|INTERRES
    71   34  104 1    
    72   35   36 2    
    73   37   38 2    
    74   37   39 am   BACKBONE|DICT|INTERRES
    75   39   40 1    
    76   39  105 1    
    77   40   41 1    
    78   40   42 1    
    79   40  106 1    
    80   41  107 1    
    81   41  108 1    
    82   41  109 1    
    83   42   43 2    
    84   42   44 am   BACKBONE|DICT|INTERRES
    85   44   45 1    
    86   44  110 1    
    87   45   46 1    
    88   45   47 1    
    89   45  111 1    
    90   46  112 1    
    91   46  113 1    
    92   46  114 1    
    93   47   48 2    
    94   47   49 am   BACKBONE|DICT|INTERRES
    95   49   50 1    
    96   49  115 1    
    97   50   51 1    
    98   50   52 1    
    99   50  116 1    
   100   51  117 1    
   101   51  118 1    
   102   51  119 1    
   103   52   53 2    
   104   52   54 am   BACKBONE|DICT|INTERRES
   105   54   55 1    
   106   54  120 1    
   107   55   56 1    
   108   55   57 1    
   109   55  121 1    
   110   56  122 1    
   111   56  123 1    
   112   56  124 1    
   113   57   58 2    
   114   57   59 am   BACKBONE|DICT|INTERRES
   115   59   60 1    
   116   59  125 1    
   117   60   61 1    
   118   60   62 1    
   119   60  126 1    
   120   61  127 1    
   121   61  128 1    
   122   61  129 1    
   123   62   63 2    
   124   62   64 am   BACKBONE|DICT|INTERRES
   125   64   65 1    
   126   64  130 1    
   127   65   66 1    
   128   65   69 1    
   129   65  131 1    
   130   66   67 am   BACKBONE|DICT|INTERRES
   131   66   68 2    
   132   67  132 1    
   133   67  133 1    
   134   69   70 1    
   135   69  134 1    
   136   69  135 1    
   137   70   71 1    
   138   71  136 1    
   139   71  137 1    
@<TRIPOS>SUBSTRUCTURE
     1 UNK         1 GROUP             0       ****    0 ROOT    
