@<TRIPOS>MOLECULE
3R136
137   139    1
SMALL
USER_CHARGES


@<TRIPOS>ATOM
      1 CA         27.6132   23.4339   -2.6278 C.3       0 UNK        -0.1979 
      2 C          27.7402   23.6989   -1.1362 C.2       0 UNK         0.4864 
      3 O          27.2728   24.7335   -0.6566 O.2       0 UNK        -0.5359 
      4 N          28.3595   22.7714   -0.3907 N.am      1 UNK        -0.4318 
      5 CA         28.5385   22.8414    1.0694 C.3       1 UNK         0.0824 
      6 C6         29.5416   21.7692    1.5704 C.3       12 UNK        -0.0944 
      7 S7         30.4584   22.3082    3.0565 S.3       12 UNK        -0.2672 
      8 C8         32.1948   22.1648    2.5313 C.3       12 UNK         0.0333 
      9 C9         32.6968   23.4092    1.8101 C.ar      12 UNK        -0.0807 
     10 C10        33.4584   24.3602    2.4992 C.ar      12 UNK        -0.0894 
     11 C11        34.0109   25.4534    1.8238 C.ar      12 UNK        -0.0804 
     12 C12        33.7745   25.6036    0.4543 C.ar      12 UNK        -0.0824 
     13 C13        32.9952   24.6747   -0.2414 C.ar      12 UNK        -0.0762 
     14 C14        32.4627   23.5774    0.4415 C.ar      12 UNK        -0.0782 
     15 C15        32.7789   24.8240   -1.7416 C.3       12 UNK         0.0230 
     16 S16        31.9243   26.3700   -2.1816 S.3       12 UNK        -0.2608 
     17 C17        30.2501   26.0822   -1.5204 C.3       12 UNK        -0.0989 
     18 CA         29.6650   27.3476   -0.8442 C.3       5 UNK         0.0716 
     19 N          28.2132   27.4556   -1.0257 N.am      5 UNK        -0.4135 
     20 C          27.5654   28.6288   -1.0350 C.2       4 UNK         0.5031 
     21 O          28.1251   29.7168   -0.8961 O.2       4 UNK        -0.5229 
     22 CA         26.0430   28.6187   -1.2537 C.3       4 UNK         0.0329 
     23 CB         25.7268   28.7417   -2.7534 C.3       4 UNK        -0.2001 
     24 N          25.2941   27.4854   -0.7031 N.am      4 UNK        -0.4303 
     25 C          25.3291   27.0239    0.5542 C.2       3 UNK         0.5044 
     26 O          26.1796   27.3429    1.3850 O.2       3 UNK        -0.5152 
     27 CA         24.1996   26.0671    0.9635 C.3       3 UNK         0.0319 
     28 CB         22.9592   26.1209    0.0405 C.3       3 UNK        -0.2001 
     29 N          24.7082   24.7019    1.0454 N.am      3 UNK        -0.4354 
     30 C          24.1511   23.7296    1.7841 C.2       2 UNK         0.4964 
     31 O          23.1634   23.9016    2.5002 O.2       2 UNK        -0.5047 
     32 CA         24.7650   22.3170    1.7109 C.3       2 UNK         0.0288 
     33 CB         23.8919   21.3976    0.8403 C.3       2 UNK        -0.2113 
     34 N          26.1322   22.2996    1.1923 N.am      2 UNK        -0.4145 
     35 C          27.2015   22.7707    1.8493 C.2       1 UNK         0.5006 
     36 O          27.1488   23.1588    3.0158 O.2       1 UNK        -0.5103 
     37 C          30.0584   27.4601    0.6419 C.2       5 UNK         0.5055 
     38 O          31.0848   28.0658    0.9466 O.2       5 UNK        -0.5220 
     39 N          29.2231   26.9164    1.5409 N.am      6 UNK        -0.4450 
     40 CA         29.4065   27.0304    2.9902 C.3       6 UNK         0.0367 
     41 CB         28.6204   25.9272    3.7075 C.3       6 UNK        -0.1929 
     42 C          29.0042   28.4109    3.5302 C.2       6 UNK         0.5070 
     43 O          29.5528   28.8449    4.5425 O.2       6 UNK        -0.5237 
     44 N          28.0676   29.0868    2.8518 N.am      7 UNK        -0.4739 
     45 CA         27.5953   30.4415    3.1498 C.3       7 UNK         0.0276 
     46 CB         26.2324   30.6461    2.4622 C.3       7 UNK        -0.1927 
     47 C          28.6236   31.5286    2.7654 C.2       7 UNK         0.5013 
     48 O          28.3061   32.4380    1.9960 O.2       7 UNK        -0.5193 
     49 N          29.8371   31.4186    3.3126 N.am      8 UNK        -0.4253 
     50 CA         30.9504   32.3447    3.1471 C.3       8 UNK         0.0242 
     51 CB         31.8814   31.8305    2.0356 C.3       8 UNK        -0.2000 
     52 C          31.6942   32.4285    4.4815 C.2       8 UNK         0.4948 
     53 O          31.7881   31.4204    5.1855 O.2       8 UNK        -0.5275 
     54 N          32.2486   33.6071    4.7953 N.am      9 UNK        -0.4246 
     55 CA         32.9480   33.8953    6.0562 C.3       9 UNK         0.0261 
     56 CB         33.3319   35.3836    6.0960 C.3       9 UNK        -0.1959 
     57 C          34.1840   33.0144    6.3213 C.2       9 UNK         0.5033 
     58 O          34.5164   32.7747    7.4828 O.2       9 UNK        -0.5390 
     59 N          34.8285   32.5395    5.2478 N.am      10 UNK        -0.4215 
     60 CA         35.9544   31.6066    5.2978 C.3       10 UNK         0.0240 
     61 CB         36.7369   31.7028    3.9771 C.3       10 UNK        -0.1982 
     62 C          35.5355   30.1471    5.5601 C.2       10 UNK         0.4970 
     63 O          36.3884   29.3604    5.9742 O.2       10 UNK        -0.4916 
     64 N          34.2685   29.8014    5.2935 N.am      11 UNK        -0.4279 
     65 CA         33.7401   28.4292    5.3684 C.3       11 UNK         0.1003 
     66 C          32.7567   28.2227    6.5505 C.2       11 UNK         0.5709 
     67 N          32.0479   29.2462    7.0095 N.am      11 UNK        -0.7358 
     68 O          32.6556   27.1172    7.0772 O.2       11 UNK        -0.4999 
     69 C69        33.0913   27.9890    4.0300 C.3       12 UNK        -0.0954 
     70 S70        34.2391   28.1171    2.6186 S.3       12 UNK        -0.2268 
     71 C71        34.9243   26.4333    2.5494 C.3       12 UNK         0.0203 
     72 H72        28.2256   22.5900   -2.9446 H         1 UNK         0.0888 
     73 H73        26.5756   23.2177   -2.8802 H         1 UNK         0.0888 
     74 H74        27.9233   24.3090   -3.1972 H         1 UNK         0.0888 
     75 H75        28.7174   21.9389   -0.8382 H         1 UNK         0.3017 
     76 H76        28.9634   23.8275    1.2699 H         1 UNK         0.0873 
     77 H77        30.2619   21.5306    0.7886 H         1 UNK         0.0745 
     78 H78        29.0406   20.8239    1.7889 H         1 UNK         0.0745 
     79 H79        32.8030   21.9842    3.4190 H         1 UNK         0.0705 
     80 H80        32.3259   21.2831    1.9023 H         1 UNK         0.0705 
     81 H81        33.6531   24.2280    3.5548 H         1 UNK         0.1334 
     82 H82        34.2049   26.4439   -0.0736 H         1 UNK         0.1417 
     83 H83        31.8900   22.8390   -0.1006 H         1 UNK         0.1562 
     84 H84        33.7500   24.8089   -2.2382 H         1 UNK         0.0748 
     85 H85        32.2167   23.9805   -2.1456 H         1 UNK         0.0748 
     86 H86        30.2448   25.2267   -0.8428 H         1 UNK         0.0940 
     87 H87        29.6364   25.7950   -2.3744 H         1 UNK         0.0940 
     88 H88        30.1071   28.2130   -1.3440 H         1 UNK         0.0703 
     89 H89        27.6860   26.5879   -1.0778 H         1 UNK         0.3081 
     90 H90        25.6526   29.5100   -0.7589 H         1 UNK         0.0719 
     91 H91        26.0341   27.8513   -3.3034 H         1 UNK         0.0809 
     92 H92        24.6610   28.8931   -2.9256 H         1 UNK         0.0809 
     93 H93        26.2461   29.5934   -3.1956 H         1 UNK         0.0809 
     94 H94        24.5700   27.1141   -1.3003 H         1 UNK         0.2990 
     95 H95        23.8907   26.3857    1.9615 H         1 UNK         0.0690 
     96 H96        22.1315   25.5508    0.4630 H         1 UNK         0.0788 
     97 H97        23.1644   25.7098   -0.9486 H         1 UNK         0.0788 
     98 H98        22.6011   27.1439   -0.0851 H         1 UNK         0.0788 
     99 H99        25.5535   24.5163    0.5145 H         1 UNK         0.2993 
    100 H100       24.7794   21.9169    2.7273 H         1 UNK         0.0949 
    101 H101       22.8693   21.3572    1.2186 H         1 UNK         0.0767 
    102 H102       23.8434   21.7456   -0.1924 H         1 UNK         0.0767 
    103 H103       24.2729   20.3760    0.8348 H         1 UNK         0.0767 
    104 H104       26.2555   21.9835    0.2419 H         1 UNK         0.3013 
    105 H105       28.3514   26.5141    1.2203 H         1 UNK         0.3121 
    106 H106       30.4640   26.8851    3.2173 H         1 UNK         0.0774 
    107 H107       28.6807   26.0418    4.7906 H         1 UNK         0.0815 
    108 H108       27.5642   25.9353    3.4351 H         1 UNK         0.0815 
    109 H109       29.0279   24.9460    3.4711 H         1 UNK         0.0815 
    110 H110       27.6217   28.6166    2.0713 H         1 UNK         0.2987 
    111 H111       27.4388   30.5194    4.2279 H         1 UNK         0.0949 
    112 H112       26.3208   30.5943    1.3767 H         1 UNK         0.0806 
    113 H113       25.5112   29.8909    2.7757 H         1 UNK         0.0806 
    114 H114       25.8097   31.6205    2.7106 H         1 UNK         0.0806 
    115 H115       30.0070   30.6490    3.9584 H         1 UNK         0.3010 
    116 H116       30.5753   33.3368    2.8865 H         1 UNK         0.0829 
    117 H117       31.3559   31.7596    1.0830 H         1 UNK         0.0813 
    118 H118       32.7303   32.4993    1.8897 H         1 UNK         0.0813 
    119 H119       32.2774   30.8401    2.2676 H         1 UNK         0.0813 
    120 H120       32.1414   34.3805    4.1539 H         1 UNK         0.3038 
    121 H121       32.2423   33.7046    6.8677 H         1 UNK         0.0769 
    122 H122       34.0120   35.6477    5.2851 H         1 UNK         0.0811 
    123 H123       33.8310   35.6331    7.0336 H         1 UNK         0.0811 
    124 H124       32.4527   36.0237    6.0208 H         1 UNK         0.0811 
    125 H125       34.4909   32.8027    4.3337 H         1 UNK         0.3204 
    126 H126       36.6199   31.9072    6.1101 H         1 UNK         0.0748 
    127 H127       37.6101   31.0488    3.9921 H         1 UNK         0.0771 
    128 H128       36.1255   31.4082    3.1228 H         1 UNK         0.0771 
    129 H129       37.0975   32.7165    3.8010 H         1 UNK         0.0771 
    130 H130       33.5947   30.5127    5.0375 H         1 UNK         0.2980 
    131 H131       34.5637   27.7373    5.5535 H         1 UNK         0.0545 
    132 H132       32.0300   30.1232    6.4964 H         1 UNK         0.3459 
    133 H133       31.4154   29.1017    7.7789 H         1 UNK         0.3459 
    134 H134       32.2249   28.6141    3.8071 H         1 UNK         0.0616 
    135 H135       32.7228   26.9638    4.0949 H         1 UNK         0.0616 
    136 H136       35.8798   26.4724    2.0247 H         1 UNK         0.0634 
    137 H137       35.1480   26.0911    3.5610 H         1 UNK         0.0634 
@<TRIPOS>BOND
     1    1    2 1    
     2    1   72 1    
     3    1   73 1    
     4    1   74 1    
     5    2    3 2    
     6    2    4 am   BACKBONE|DICT|INTERRES
     7    4    5 1    
     8    4   75 1    
     9    5    6 1    
    10    5   35 1    
    11    5   76 1    
    12    6    7 1    
    13    6   77 1    
    14    6   78 1    
    15    7    8 1    
    16    8    9 1    
    17    8   79 1    
    18    8   80 1    
    19    9   10 ar   
    20    9   14 ar   
    21   10   11 ar   
    22   10   81 1    
    23   11   12 ar   
    24   11   71 1    
    25   12   13 ar   
    26   12   82 1    
    27   13   14 ar   
    28   13   15 1    
    29   14   83 1    
    30   15   16 1    
    31   15   84 1    
    32   15   85 1    
    33   16   17 1    
    34   17   18 1    
    35   17   86 1    
    36   17   87 1    
    37   18   19 1    
    38   18   37 1    
    39   18   88 1    
    40   19   20 am   BACKBONE|DICT|INTERRES
    41   19   89 1    
    42   20   21 2    
    43   20   22 1    
    44   22   23 1    
    45   22   24 1    
    46   22   90 1    
    47   23   91 1    
    48   23   92 1    
    49   23   93 1    
    50   24   25 am   BACKBONE|DICT|INTERRES
    51   24   94 1    
    52   25   26 2    
    53   25   27 1    
    54   27   28 1    
    55   27   29 1    
    56   27   95 1    
    57   28   96 1    
    58   28   97 1    
    59   28   98 1    
    60   29   30 am   BACKBONE|DICT|INTERRES
    61   29   99 1    
    62   30   31 2    
    63   30   32 1    
    64   32   33 1    
    65   32   34 1    
    66   32  100 1    
    67   33  101 1    
    68   33  102 1    
    69   33  103 1    
    70   34   35 am   BACKBONE|DICT|INTERRES
    71   34  104 1    
    72   35   36 2    
    73   37   38 2    
    74   37   39 am   BACKBONE|DICT|INTERRES
    75   39   40 1    
    76   39  105 1    
    77   40   41 1    
    78   40   42 1    
    79   40  106 1    
    80   41  107 1    
    81   41  108 1    
    82   41  109 1    
    83   42   43 2    
    84   42   44 am   BACKBONE|DICT|INTERRES
    85   44   45 1    
    86   44  110 1    
    87   45   46 1    
    88   45   47 1    
    89   45  111 1    
    90   46  112 1    
    91   46  113 1    
    92   46  114 1    
    93   47   48 2    
    94   47   49 am   BACKBONE|DICT|INTERRES
    95   49   50 1    
    96   49  115 1    
    97   50   51 1    
    98   50   52 1    
    99   50  116 1    
   100   51  117 1    
   101   51  118 1    
   102   51  119 1    
   103   52   53 2    
   104   52   54 am   BACKBONE|DICT|INTERRES
   105   54   55 1    
   106   54  120 1    
   107   55   56 1    
   108   55   57 1    
   109   55  121 1    
   110   56  122 1    
   111   56  123 1    
   112   56  124 1    
   113   57   58 2    
   114   57   59 am   BACKBONE|DICT|INTERRES
   115   59   60 1    
   116   59  125 1    
   117   60   61 1    
   118   60   62 1    
   119   60  126 1    
   120   61  127 1    
   121   61  128 1    
   122   61  129 1    
   123   62   63 2    
   124   62   64 am   BACKBONE|DICT|INTERRES
   125   64   65 1    
   126   64  130 1    
   127   65   66 1    
   128   65   69 1    
   129   65  131 1    
   130   66   67 am   BACKBONE|DICT|INTERRES
   131   66   68 2    
   132   67  132 1    
   133   67  133 1    
   134   69   70 1    
   135   69  134 1    
   136   69  135 1    
   137   70   71 1    
   138   71  136 1    
   139   71  137 1    
@<TRIPOS>SUBSTRUCTURE
     1 UNK         1 GROUP             0       ****    0 ROOT    
