@<TRIPOS>MOLECULE
3R136
137   139    1
SMALL
USER_CHARGES


@<TRIPOS>ATOM
      1 CA         29.7863   22.2873   -2.9910 C.3       0 UNK        -0.1979 
      2 C          29.6017   22.8773   -1.6016 C.2       0 UNK         0.4864 
      3 O          29.5893   24.1011   -1.4602 O.2       0 UNK        -0.5359 
      4 N          29.4470   22.0152   -0.5841 N.am      1 UNK        -0.4318 
      5 CA         29.2852   22.3687    0.8334 C.3       1 UNK         0.0824 
      6 C6         29.0893   21.1205    1.7325 C.3       12 UNK        -0.0944 
      7 S7         30.5753   20.0661    1.7969 S.3       12 UNK        -0.2672 
      8 C8         31.2845   20.5441    3.4087 C.3       12 UNK         0.0333 
      9 C9         31.6683   22.0163    3.4294 C.ar      12 UNK        -0.0807 
     10 C10        32.7928   22.4499    2.7270 C.ar      12 UNK        -0.0894 
     11 C11        33.1280   23.8040    2.6738 C.ar      12 UNK        -0.0804 
     12 C12        32.3136   24.7292    3.3441 C.ar      12 UNK        -0.0824 
     13 C13        31.1845   24.3154    4.0612 C.ar      12 UNK        -0.0762 
     14 C14        30.8822   22.9482    4.1126 C.ar      12 UNK        -0.0782 
     15 C15        30.3273   25.3653    4.7773 C.3       12 UNK         0.0230 
     16 S16        28.5613   24.8968    4.9636 S.3       12 UNK        -0.2608 
     17 C17        27.4909   26.2716    4.3819 C.3       12 UNK        -0.0989 
     18 CA         28.1368   27.4767    3.6553 C.3       5 UNK         0.0716 
     19 N          28.7667   27.1060    2.3853 N.am      5 UNK        -0.4135 
     20 C          29.5845   27.9119    1.6930 C.2       4 UNK         0.5031 
     21 O          29.9071   29.0398    2.0649 O.2       4 UNK        -0.5229 
     22 CA         30.0923   27.3992    0.3356 C.3       4 UNK         0.0329 
     23 CB         31.2250   26.3802    0.5145 C.3       4 UNK        -0.2001 
     24 N          29.0294   26.8180   -0.4851 N.am      4 UNK        -0.4303 
     25 C          27.9813   27.5062   -0.9595 C.2       3 UNK         0.5044 
     26 O          27.8104   28.7114   -0.7759 O.2       3 UNK        -0.5152 
     27 CA         26.9273   26.7094   -1.7440 C.3       3 UNK         0.0319 
     28 CB         27.3958   26.4474   -3.1842 C.3       3 UNK        -0.2001 
     29 N          26.5871   25.4417   -1.0961 N.am      3 UNK        -0.4354 
     30 C          25.9648   25.3384    0.0870 C.2       2 UNK         0.4964 
     31 O          25.5981   26.3002    0.7595 O.2       2 UNK        -0.5047 
     32 CA         25.7627   23.9190    0.6398 C.3       2 UNK         0.0288 
     33 CB         24.5722   23.2281   -0.0447 C.3       2 UNK        -0.2113 
     34 N          26.9576   23.0804    0.5205 N.am      2 UNK        -0.4145 
     35 C          28.1445   23.3726    1.0735 C.2       1 UNK         0.5006 
     36 O          28.3679   24.3979    1.7148 O.2       1 UNK        -0.5103 
     37 C          27.1132   28.6187    3.4748 C.2       5 UNK         0.5055 
     38 O          27.0680   29.5087    4.3244 O.2       5 UNK        -0.5220 
     39 N          26.3381   28.6125    2.3769 N.am      6 UNK        -0.4450 
     40 CA         25.3932   29.6833    2.0299 C.3       6 UNK         0.0367 
     41 CB         24.5197   29.2580    0.8396 C.3       6 UNK        -0.1929 
     42 C          26.0735   31.0323    1.7373 C.2       6 UNK         0.5070 
     43 O          25.4884   32.0752    2.0301 O.2       6 UNK        -0.5237 
     44 N          27.3007   30.9963    1.1982 N.am      7 UNK        -0.4739 
     45 CA         28.1510   32.1731    0.9940 C.3       7 UNK         0.0276 
     46 CB         29.2891   31.8201    0.0222 C.3       7 UNK        -0.1927 
     47 C          28.7150   32.7570    2.3042 C.2       7 UNK         0.5013 
     48 O          29.1812   33.8968    2.2904 O.2       7 UNK        -0.5193 
     49 N          28.6771   31.9798    3.3990 N.am      8 UNK        -0.4253 
     50 CA         29.0419   32.2926    4.7907 C.3       8 UNK         0.0242 
     51 CB         28.1587   33.4241    5.3505 C.3       8 UNK        -0.2000 
     52 C          30.5318   32.5836    5.0483 C.2       8 UNK         0.4948 
     53 O          31.0399   32.2120    6.1063 O.2       8 UNK        -0.5275 
     54 N          31.2091   33.2324    4.0957 N.am      9 UNK        -0.4246 
     55 CA         32.6285   33.5876    4.1445 C.3       9 UNK         0.0261 
     56 CB         32.8957   34.6811    3.0964 C.3       9 UNK        -0.1959 
     57 C          33.5808   32.3954    3.9320 C.2       9 UNK         0.5033 
     58 O          34.7783   32.5448    4.1816 O.2       9 UNK        -0.5390 
     59 N          33.0554   31.2562    3.4644 N.am      10 UNK        -0.4215 
     60 CA         33.7929   30.0224    3.2026 C.3       10 UNK         0.0240 
     61 CB         33.6268   29.6759    1.7121 C.3       10 UNK        -0.1982 
     62 C          33.2383   28.8902    4.0895 C.2       10 UNK         0.4970 
     63 O          32.0849   28.9745    4.5114 O.2       10 UNK        -0.4916 
     64 N          33.9954   27.8215    4.3725 N.am      11 UNK        -0.4279 
     65 CA         35.4102   27.5750    4.0323 C.3       11 UNK         0.1003 
     66 C          36.3805   27.8684    5.2144 C.2       11 UNK         0.5709 
     67 N          35.9084   28.3209    6.3705 N.am      11 UNK        -0.7358 
     68 O          37.5902   27.7062    5.0738 O.2       11 UNK        -0.4999 
     69 C69        35.6098   26.1439    3.4670 C.3       12 UNK        -0.0954 
     70 S70        34.8136   25.9556    1.8384 S.3       12 UNK        -0.2268 
     71 C71        34.3571   24.1915    1.8479 C.3       12 UNK         0.0203 
     72 H72        28.9967   22.6385   -3.6547 H         1 UNK         0.0888 
     73 H73        30.7440   22.6011   -3.4051 H         1 UNK         0.0888 
     74 H74        29.7616   21.1978   -2.9794 H         1 UNK         0.0888 
     75 H75        29.4860   21.0238   -0.7737 H         1 UNK         0.3017 
     76 H76        30.2051   22.8734    1.1355 H         1 UNK         0.0873 
     77 H77        28.2574   20.5136    1.3703 H         1 UNK         0.0745 
     78 H78        28.8214   21.4074    2.7514 H         1 UNK         0.0745 
     79 H79        32.1680   19.9344    3.6035 H         1 UNK         0.0705 
     80 H80        30.5722   20.3141    4.2027 H         1 UNK         0.0705 
     81 H81        33.3965   21.7265    2.1951 H         1 UNK         0.1334 
     82 H82        32.5404   25.7829    3.3002 H         1 UNK         0.1417 
     83 H83        30.0183   22.6040    4.6631 H         1 UNK         0.1562 
     84 H84        30.4392   26.3192    4.2697 H         1 UNK         0.0748 
     85 H85        30.7404   25.5153    5.7752 H         1 UNK         0.0748 
     86 H86        26.9560   26.6240    5.2665 H         1 UNK         0.0940 
     87 H87        26.7259   25.8289    3.7404 H         1 UNK         0.0940 
     88 H88        28.9125   27.8851    4.3058 H         1 UNK         0.0703 
     89 H89        28.5796   26.1637    2.0423 H         1 UNK         0.3081 
     90 H90        30.4959   28.2567   -0.2071 H         1 UNK         0.0719 
     91 H91        31.6590   26.0957   -0.4440 H         1 UNK         0.0809 
     92 H92        32.0269   26.7982    1.1229 H         1 UNK         0.0809 
     93 H93        30.8750   25.4699    1.0024 H         1 UNK         0.0809 
     94 H94        29.1093   25.8282   -0.7081 H         1 UNK         0.2990 
     95 H95        26.0198   27.3154   -1.7884 H         1 UNK         0.0690 
     96 H96        27.6377   27.3829   -3.6905 H         1 UNK         0.0788 
     97 H97        26.6201   25.9541   -3.7701 H         1 UNK         0.0788 
     98 H98        28.2884   25.8210   -3.2136 H         1 UNK         0.0788 
     99 H99        26.9058   24.5980   -1.5494 H         1 UNK         0.2993 
    100 H100       25.5365   24.0153    1.7041 H         1 UNK         0.0949 
    101 H101       24.7534   23.0637   -1.1077 H         1 UNK         0.0767 
    102 H102       24.3579   22.2621    0.4130 H         1 UNK         0.0767 
    103 H103       23.6685   23.8331    0.0425 H         1 UNK         0.0767 
    104 H104       26.8690   22.2262   -0.0102 H         1 UNK         0.3013 
    105 H105       26.3742   27.8199    1.7414 H         1 UNK         0.3121 
    106 H106       24.7375   29.8335    2.8902 H         1 UNK         0.0774 
    107 H107       25.1215   29.0301   -0.0406 H         1 UNK         0.0815 
    108 H108       23.8223   30.0496    0.5624 H         1 UNK         0.0815 
    109 H109       23.9252   28.3765    1.0793 H         1 UNK         0.0815 
    110 H110       27.6858   30.0995    0.9218 H         1 UNK         0.2987 
    111 H111       27.5421   32.9532    0.5319 H         1 UNK         0.0949 
    112 H112       29.9593   31.0673    0.4363 H         1 UNK         0.0806 
    113 H113       28.9006   31.4380   -0.9220 H         1 UNK         0.0806 
    114 H114       29.8923   32.6995   -0.2075 H         1 UNK         0.0806 
    115 H115       28.2973   31.0487    3.2742 H         1 UNK         0.3010 
    116 H116       28.8095   31.3888    5.3563 H         1 UNK         0.0829 
    117 H117       27.1000   33.1822    5.2548 H         1 UNK         0.0813 
    118 H118       28.3596   33.5871    6.4102 H         1 UNK         0.0813 
    119 H119       28.3345   34.3705    4.8381 H         1 UNK         0.0813 
    120 H120       30.6767   33.5450    3.2860 H         1 UNK         0.3038 
    121 H121       32.8427   34.0002    5.1326 H         1 UNK         0.0769 
    122 H122       32.6880   34.3288    2.0852 H         1 UNK         0.0811 
    123 H123       33.9376   35.0038    3.1225 H         1 UNK         0.0811 
    124 H124       32.2809   35.5630    3.2773 H         1 UNK         0.0811 
    125 H125       32.0505   31.1868    3.3787 H         1 UNK         0.3204 
    126 H126       34.8473   30.1822    3.4270 H         1 UNK         0.0748 
    127 H127       34.1987   28.7894    1.4421 H         1 UNK         0.0771 
    128 H128       32.5843   29.4806    1.4573 H         1 UNK         0.0771 
    129 H129       33.9779   30.4888    1.0763 H         1 UNK         0.0771 
    130 H130       33.5895   27.1141    4.9654 H         1 UNK         0.2980 
    131 H131       35.7343   28.2507    3.2432 H         1 UNK         0.0545 
    132 H132       36.5524   28.5137    7.1215 H         1 UNK         0.3459 
    133 H133       34.9218   28.4761    6.5015 H         1 UNK         0.3459 
    134 H134       36.6685   25.9155    3.3309 H         1 UNK         0.0616 
    135 H135       35.2204   25.3980    4.1621 H         1 UNK         0.0616 
    136 H136       35.2176   23.6122    2.1862 H         1 UNK         0.0634 
    137 H137       34.1751   23.8960    0.8137 H         1 UNK         0.0634 
@<TRIPOS>BOND
     1    1    2 1    
     2    1   72 1    
     3    1   73 1    
     4    1   74 1    
     5    2    3 2    
     6    2    4 am   BACKBONE|DICT|INTERRES
     7    4    5 1    
     8    4   75 1    
     9    5    6 1    
    10    5   35 1    
    11    5   76 1    
    12    6    7 1    
    13    6   77 1    
    14    6   78 1    
    15    7    8 1    
    16    8    9 1    
    17    8   79 1    
    18    8   80 1    
    19    9   10 ar   
    20    9   14 ar   
    21   10   11 ar   
    22   10   81 1    
    23   11   12 ar   
    24   11   71 1    
    25   12   13 ar   
    26   12   82 1    
    27   13   14 ar   
    28   13   15 1    
    29   14   83 1    
    30   15   16 1    
    31   15   84 1    
    32   15   85 1    
    33   16   17 1    
    34   17   18 1    
    35   17   86 1    
    36   17   87 1    
    37   18   19 1    
    38   18   37 1    
    39   18   88 1    
    40   19   20 am   BACKBONE|DICT|INTERRES
    41   19   89 1    
    42   20   21 2    
    43   20   22 1    
    44   22   23 1    
    45   22   24 1    
    46   22   90 1    
    47   23   91 1    
    48   23   92 1    
    49   23   93 1    
    50   24   25 am   BACKBONE|DICT|INTERRES
    51   24   94 1    
    52   25   26 2    
    53   25   27 1    
    54   27   28 1    
    55   27   29 1    
    56   27   95 1    
    57   28   96 1    
    58   28   97 1    
    59   28   98 1    
    60   29   30 am   BACKBONE|DICT|INTERRES
    61   29   99 1    
    62   30   31 2    
    63   30   32 1    
    64   32   33 1    
    65   32   34 1    
    66   32  100 1    
    67   33  101 1    
    68   33  102 1    
    69   33  103 1    
    70   34   35 am   BACKBONE|DICT|INTERRES
    71   34  104 1    
    72   35   36 2    
    73   37   38 2    
    74   37   39 am   BACKBONE|DICT|INTERRES
    75   39   40 1    
    76   39  105 1    
    77   40   41 1    
    78   40   42 1    
    79   40  106 1    
    80   41  107 1    
    81   41  108 1    
    82   41  109 1    
    83   42   43 2    
    84   42   44 am   BACKBONE|DICT|INTERRES
    85   44   45 1    
    86   44  110 1    
    87   45   46 1    
    88   45   47 1    
    89   45  111 1    
    90   46  112 1    
    91   46  113 1    
    92   46  114 1    
    93   47   48 2    
    94   47   49 am   BACKBONE|DICT|INTERRES
    95   49   50 1    
    96   49  115 1    
    97   50   51 1    
    98   50   52 1    
    99   50  116 1    
   100   51  117 1    
   101   51  118 1    
   102   51  119 1    
   103   52   53 2    
   104   52   54 am   BACKBONE|DICT|INTERRES
   105   54   55 1    
   106   54  120 1    
   107   55   56 1    
   108   55   57 1    
   109   55  121 1    
   110   56  122 1    
   111   56  123 1    
   112   56  124 1    
   113   57   58 2    
   114   57   59 am   BACKBONE|DICT|INTERRES
   115   59   60 1    
   116   59  125 1    
   117   60   61 1    
   118   60   62 1    
   119   60  126 1    
   120   61  127 1    
   121   61  128 1    
   122   61  129 1    
   123   62   63 2    
   124   62   64 am   BACKBONE|DICT|INTERRES
   125   64   65 1    
   126   64  130 1    
   127   65   66 1    
   128   65   69 1    
   129   65  131 1    
   130   66   67 am   BACKBONE|DICT|INTERRES
   131   66   68 2    
   132   67  132 1    
   133   67  133 1    
   134   69   70 1    
   135   69  134 1    
   136   69  135 1    
   137   70   71 1    
   138   71  136 1    
   139   71  137 1    
@<TRIPOS>SUBSTRUCTURE
     1 UNK         1 GROUP             0       ****    0 ROOT    
