@<TRIPOS>MOLECULE
3R136
137   139    1
SMALL
USER_CHARGES


@<TRIPOS>ATOM
      1 CA         30.1284   19.0255    4.2136 C.3       0 UNK        -0.1979 
      2 C          29.1896   19.1717    3.0249 C.2       0 UNK         0.4864 
      3 O          28.2367   18.4004    2.8990 O.2       0 UNK        -0.5359 
      4 N          29.4574   20.1482    2.1495 N.am      1 UNK        -0.4318 
      5 CA         28.6228   20.4929    0.9952 C.3       1 UNK         0.0824 
      6 C6         29.4407   21.2439   -0.0895 C.3       12 UNK        -0.0944 
      7 S7         30.1560   22.8268    0.4766 S.3       12 UNK        -0.2672 
      8 C8         31.8360   22.7435   -0.2099 C.3       12 UNK         0.0333 
      9 C9         32.5640   24.0552    0.0321 C.ar      12 UNK        -0.0807 
     10 C10        33.4327   24.1958    1.1175 C.ar      12 UNK        -0.0894 
     11 C11        34.0608   25.4209    1.3736 C.ar      12 UNK        -0.0804 
     12 C12        33.8254   26.5025    0.5167 C.ar      12 UNK        -0.0824 
     13 C13        32.9731   26.3671   -0.5840 C.ar      12 UNK        -0.0762 
     14 C14        32.3481   25.1399   -0.8212 C.ar      12 UNK        -0.0782 
     15 C15        32.7423   27.5322   -1.5369 C.3       12 UNK         0.0230 
     16 S16        31.0081   28.0886   -1.5432 S.3       12 UNK        -0.2608 
     17 C17        30.9384   29.0805   -0.0173 C.3       12 UNK        -0.0989 
     18 CA         29.5058   29.1145    0.5795 C.3       5 UNK         0.0716 
     19 N          29.0704   27.8051    1.0774 N.am      5 UNK        -0.4135 
     20 C          29.4872   27.1973    2.1987 C.2       4 UNK         0.5031 
     21 O          30.3656   27.6529    2.9344 O.2       4 UNK        -0.5229 
     22 CA         28.7839   25.8799    2.5853 C.3       4 UNK         0.0329 
     23 CB         28.7017   25.6978    4.1152 C.3       4 UNK        -0.2001 
     24 N          27.4529   25.6927    1.9866 N.am      4 UNK        -0.4303 
     25 C          26.3741   26.4825    2.1041 C.2       3 UNK         0.5044 
     26 O          26.3890   27.5711    2.6797 O.2       3 UNK        -0.5152 
     27 CA         25.0484   26.0045    1.4748 C.3       3 UNK         0.0319 
     28 CB         24.7876   26.7234    0.1360 C.3       3 UNK        -0.2001 
     29 N          24.8903   24.5449    1.3425 N.am      3 UNK        -0.4354 
     30 C          25.5748   23.6982    0.5611 C.2       2 UNK         0.4964 
     31 O          26.4772   24.0446   -0.2040 O.2       2 UNK        -0.5047 
     32 CA         25.1949   22.2102    0.6608 C.3       2 UNK         0.0288 
     33 CB         24.1699   21.8416   -0.4241 C.3       2 UNK        -0.2113 
     34 N          26.3763   21.3557    0.5188 N.am      2 UNK        -0.4145 
     35 C          27.3644   21.2831    1.4220 C.2       1 UNK         0.5006 
     36 O          27.3167   21.8352    2.5265 O.2       1 UNK        -0.5103 
     37 C          29.3253   30.2173    1.6479 C.2       5 UNK         0.5055 
     38 O          30.2480   31.0018    1.8805 O.2       5 UNK        -0.5220 
     39 N          28.1544   30.2463    2.3050 N.am      6 UNK        -0.4450 
     40 CA         27.8135   31.1430    3.4204 C.3       6 UNK         0.0367 
     41 CB         26.3699   30.8665    3.8688 C.3       6 UNK        -0.1929 
     42 C          28.0075   32.6460    3.1486 C.2       6 UNK         0.5070 
     43 O          28.3080   33.3940    4.0786 O.2       6 UNK        -0.5237 
     44 N          27.8444   33.0580    1.8863 N.am      7 UNK        -0.4739 
     45 CA         28.0136   34.4402    1.4375 C.3       7 UNK         0.0276 
     46 CB         27.1470   34.6542    0.1843 C.3       7 UNK        -0.1927 
     47 C          29.4757   34.8325    1.1478 C.2       7 UNK         0.5013 
     48 O          29.7273   36.0235    0.9557 O.2       7 UNK        -0.5193 
     49 N          30.3979   33.8595    1.0755 N.am      8 UNK        -0.4253 
     50 CA         31.7718   34.0719    0.6040 C.3       8 UNK         0.0242 
     51 CB         31.9260   33.4581   -0.7985 C.3       8 UNK        -0.2000 
     52 C          32.8477   33.5199    1.5499 C.2       8 UNK         0.4948 
     53 O          33.8725   34.1816    1.7231 O.2       8 UNK        -0.5275 
     54 N          32.6283   32.3270    2.1165 N.am      9 UNK        -0.4246 
     55 CA         33.6088   31.6016    2.9298 C.3       9 UNK         0.0261 
     56 CB         34.1262   30.3818    2.1465 C.3       9 UNK        -0.1959 
     57 C          33.0396   31.1587    4.2832 C.2       9 UNK         0.5033 
     58 O          33.7610   31.2489    5.2772 O.2       9 UNK        -0.5390 
     59 N          31.7818   30.6860    4.2993 N.am      10 UNK        -0.4215 
     60 CA         31.0707   30.1028    5.4463 C.3       10 UNK         0.0240 
     61 CB         30.7207   31.1890    6.4847 C.3       10 UNK        -0.1982 
     62 C          31.8291   28.9055    6.0491 C.2       10 UNK         0.4970 
     63 O          32.3419   28.9846    7.1671 O.2       10 UNK        -0.4916 
     64 N          31.9027   27.8266    5.2627 N.am      11 UNK        -0.4279 
     65 CA         32.6332   26.5865    5.5638 C.3       11 UNK         0.1003 
     66 C          32.0978   25.7673    6.7768 C.2       11 UNK         0.5709 
     67 N          30.8827   26.0065    7.2567 N.am      11 UNK        -0.7358 
     68 O          32.8010   24.9053    7.2980 O.2       11 UNK        -0.4999 
     69 C69        32.7441   25.7090    4.2868 C.3       12 UNK        -0.0954 
     70 S70        34.3506   24.8638    4.1191 S.3       12 UNK        -0.2268 
     71 C71        34.9938   25.5928    2.5720 C.3       12 UNK         0.0203 
     72 H72        29.5768   19.1543    5.1445 H         1 UNK         0.0888 
     73 H73        30.5781   18.0330    4.2175 H         1 UNK         0.0888 
     74 H74        30.9319   19.7617    4.1914 H         1 UNK         0.0888 
     75 H75        30.2258   20.7800    2.3233 H         1 UNK         0.3017 
     76 H76        28.2728   19.5584    0.5504 H         1 UNK         0.0873 
     77 H77        28.8245   21.4451   -0.9677 H         1 UNK         0.0745 
     78 H78        30.2437   20.5948   -0.4425 H         1 UNK         0.0745 
     79 H79        32.3767   21.9117    0.2444 H         1 UNK         0.0705 
     80 H80        31.7850   22.5385   -1.2804 H         1 UNK         0.0705 
     81 H81        33.6025   23.3562    1.7774 H         1 UNK         0.1334 
     82 H82        34.3108   27.4506    0.7039 H         1 UNK         0.1417 
     83 H83        31.6773   25.0349   -1.6635 H         1 UNK         0.1562 
     84 H84        33.0110   27.2172   -2.5461 H         1 UNK         0.0748 
     85 H85        33.3931   28.3748   -1.2974 H         1 UNK         0.0748 
     86 H86        31.2893   30.0813   -0.2723 H         1 UNK         0.0940 
     87 H87        31.6429   28.6808    0.7127 H         1 UNK         0.0940 
     88 H88        28.8173   29.3825   -0.2235 H         1 UNK         0.0703 
     89 H89        28.3536   27.3442    0.5369 H         1 UNK         0.3081 
     90 H90        29.4132   25.0821    2.1917 H         1 UNK         0.0719 
     91 H91        28.1340   26.5005    4.5869 H         1 UNK         0.0809 
     92 H92        28.2276   24.7513    4.3753 H         1 UNK         0.0809 
     93 H93        29.6930   25.6924    4.5660 H         1 UNK         0.0809 
     94 H94        27.3458   24.8666    1.4063 H         1 UNK         0.2990 
     95 H95        24.2635   26.3159    2.1660 H         1 UNK         0.0690 
     96 H96        23.8178   26.4488   -0.2787 H         1 UNK         0.0788 
     97 H97        25.5487   26.4922   -0.6097 H         1 UNK         0.0788 
     98 H98        24.7865   27.8061    0.2701 H         1 UNK         0.0788 
     99 H99        24.1873   24.1464    1.9504 H         1 UNK         0.2993 
    100 H100       24.7529   22.0203    1.6416 H         1 UNK         0.0949 
    101 H101       23.8712   20.7957   -0.3497 H         1 UNK         0.0767 
    102 H102       23.2650   22.4434   -0.3274 H         1 UNK         0.0767 
    103 H103       24.5658   22.0082   -1.4270 H         1 UNK         0.0767 
    104 H104       26.4999   20.9077   -0.3773 H         1 UNK         0.3013 
    105 H105       27.4774   29.5197    2.1040 H         1 UNK         0.3121 
    106 H106       28.4697   30.8931    4.2518 H         1 UNK         0.0774 
    107 H107       26.0842   31.5172    4.6967 H         1 UNK         0.0815 
    108 H108       25.6572   31.0336    3.0605 H         1 UNK         0.0815 
    109 H109       26.2519   29.8393    4.2141 H         1 UNK         0.0815 
    110 H110       27.5916   32.3750    1.1868 H         1 UNK         0.2987 
    111 H111       27.6503   35.1129    2.2180 H         1 UNK         0.0949 
    112 H112       27.4652   34.0164   -0.6413 H         1 UNK         0.0806 
    113 H113       26.0966   34.4443    0.3870 H         1 UNK         0.0806 
    114 H114       27.2061   35.6873   -0.1616 H         1 UNK         0.0806 
    115 H115       30.1261   32.9099    1.3049 H         1 UNK         0.3010 
    116 H116       31.9760   35.1411    0.5139 H         1 UNK         0.0829 
    117 H117       31.2515   33.9313   -1.5124 H         1 UNK         0.0813 
    118 H118       32.9409   33.5917   -1.1760 H         1 UNK         0.0813 
    119 H119       31.7153   32.3888   -0.7983 H         1 UNK         0.0813 
    120 H120       31.7406   31.8572    1.9479 H         1 UNK         0.3038 
    121 H121       34.4651   32.2438    3.1470 H         1 UNK         0.0769 
    122 H122       34.8968   29.8551    2.7112 H         1 UNK         0.0811 
    123 H123       34.5668   30.6784    1.1946 H         1 UNK         0.0811 
    124 H124       33.3306   29.6666    1.9412 H         1 UNK         0.0811 
    125 H125       31.2734   30.6608    3.4202 H         1 UNK         0.3204 
    126 H126       30.1360   29.6957    5.0618 H         1 UNK         0.0748 
    127 H127       30.1352   30.7700    7.3039 H         1 UNK         0.0771 
    128 H128       31.6132   31.6394    6.9202 H         1 UNK         0.0771 
    129 H129       30.1286   31.9874    6.0368 H         1 UNK         0.0771 
    130 H130       31.4097   27.8373    4.3700 H         1 UNK         0.2980 
    131 H131       33.6377   26.9090    5.8441 H         1 UNK         0.0545 
    132 H132       30.3038   26.7222    6.8499 H         1 UNK         0.3459 
    133 H133       30.5513   25.4745    8.0455 H         1 UNK         0.3459 
    134 H134       32.6005   26.3259    3.3999 H         1 UNK         0.0616 
    135 H135       31.9511   24.9609    4.2378 H         1 UNK         0.0616 
    136 H136       35.9532   25.1297    2.3388 H         1 UNK         0.0634 
    137 H137       35.1946   26.6501    2.7530 H         1 UNK         0.0634 
@<TRIPOS>BOND
     1    1    2 1    
     2    1   72 1    
     3    1   73 1    
     4    1   74 1    
     5    2    3 2    
     6    2    4 am   BACKBONE|DICT|INTERRES
     7    4    5 1    
     8    4   75 1    
     9    5    6 1    
    10    5   35 1    
    11    5   76 1    
    12    6    7 1    
    13    6   77 1    
    14    6   78 1    
    15    7    8 1    
    16    8    9 1    
    17    8   79 1    
    18    8   80 1    
    19    9   10 ar   
    20    9   14 ar   
    21   10   11 ar   
    22   10   81 1    
    23   11   12 ar   
    24   11   71 1    
    25   12   13 ar   
    26   12   82 1    
    27   13   14 ar   
    28   13   15 1    
    29   14   83 1    
    30   15   16 1    
    31   15   84 1    
    32   15   85 1    
    33   16   17 1    
    34   17   18 1    
    35   17   86 1    
    36   17   87 1    
    37   18   19 1    
    38   18   37 1    
    39   18   88 1    
    40   19   20 am   BACKBONE|DICT|INTERRES
    41   19   89 1    
    42   20   21 2    
    43   20   22 1    
    44   22   23 1    
    45   22   24 1    
    46   22   90 1    
    47   23   91 1    
    48   23   92 1    
    49   23   93 1    
    50   24   25 am   BACKBONE|DICT|INTERRES
    51   24   94 1    
    52   25   26 2    
    53   25   27 1    
    54   27   28 1    
    55   27   29 1    
    56   27   95 1    
    57   28   96 1    
    58   28   97 1    
    59   28   98 1    
    60   29   30 am   BACKBONE|DICT|INTERRES
    61   29   99 1    
    62   30   31 2    
    63   30   32 1    
    64   32   33 1    
    65   32   34 1    
    66   32  100 1    
    67   33  101 1    
    68   33  102 1    
    69   33  103 1    
    70   34   35 am   BACKBONE|DICT|INTERRES
    71   34  104 1    
    72   35   36 2    
    73   37   38 2    
    74   37   39 am   BACKBONE|DICT|INTERRES
    75   39   40 1    
    76   39  105 1    
    77   40   41 1    
    78   40   42 1    
    79   40  106 1    
    80   41  107 1    
    81   41  108 1    
    82   41  109 1    
    83   42   43 2    
    84   42   44 am   BACKBONE|DICT|INTERRES
    85   44   45 1    
    86   44  110 1    
    87   45   46 1    
    88   45   47 1    
    89   45  111 1    
    90   46  112 1    
    91   46  113 1    
    92   46  114 1    
    93   47   48 2    
    94   47   49 am   BACKBONE|DICT|INTERRES
    95   49   50 1    
    96   49  115 1    
    97   50   51 1    
    98   50   52 1    
    99   50  116 1    
   100   51  117 1    
   101   51  118 1    
   102   51  119 1    
   103   52   53 2    
   104   52   54 am   BACKBONE|DICT|INTERRES
   105   54   55 1    
   106   54  120 1    
   107   55   56 1    
   108   55   57 1    
   109   55  121 1    
   110   56  122 1    
   111   56  123 1    
   112   56  124 1    
   113   57   58 2    
   114   57   59 am   BACKBONE|DICT|INTERRES
   115   59   60 1    
   116   59  125 1    
   117   60   61 1    
   118   60   62 1    
   119   60  126 1    
   120   61  127 1    
   121   61  128 1    
   122   61  129 1    
   123   62   63 2    
   124   62   64 am   BACKBONE|DICT|INTERRES
   125   64   65 1    
   126   64  130 1    
   127   65   66 1    
   128   65   69 1    
   129   65  131 1    
   130   66   67 am   BACKBONE|DICT|INTERRES
   131   66   68 2    
   132   67  132 1    
   133   67  133 1    
   134   69   70 1    
   135   69  134 1    
   136   69  135 1    
   137   70   71 1    
   138   71  136 1    
   139   71  137 1    
@<TRIPOS>SUBSTRUCTURE
     1 UNK         1 GROUP             0       ****    0 ROOT    
