@<TRIPOS>MOLECULE
3R136
137   139    1
SMALL
USER_CHARGES


@<TRIPOS>ATOM
      1 CA         27.7856   24.0859   -2.5008 C.3       0 UNK        -0.1979 
      2 C          28.0599   24.0395   -1.0057 C.2       0 UNK         0.4864 
      3 O          27.7425   24.9981   -0.2964 O.2       0 UNK        -0.5359 
      4 N          28.6391   22.9314   -0.5233 N.am      1 UNK        -0.4318 
      5 CA         28.9261   22.6727    0.8917 C.3       1 UNK         0.0824 
      6 C6         29.7085   21.3543    1.1122 C.3       12 UNK        -0.0944 
      7 S7         31.1932   21.2041    0.0625 S.3       12 UNK        -0.2672 
      8 C8         32.5156   21.8034    1.1674 C.3       12 UNK         0.0333 
      9 C9         32.6046   23.3247    1.2782 C.ar      12 UNK        -0.0807 
     10 C10        32.9567   23.9049    2.5012 C.ar      12 UNK        -0.0894 
     11 C11        33.1447   25.2863    2.6094 C.ar      12 UNK        -0.0804 
     12 C12        32.9410   26.0984    1.4900 C.ar      12 UNK        -0.0824 
     13 C13        32.5891   25.5354    0.2588 C.ar      12 UNK        -0.0762 
     14 C14        32.4314   24.1491    0.1591 C.ar      12 UNK        -0.0782 
     15 C15        32.4544   26.4185   -0.9757 C.3       12 UNK         0.0230 
     16 S16        30.8223   26.2591   -1.7743 S.3       12 UNK        -0.2608 
     17 C17        30.3822   28.0063   -2.0816 C.3       12 UNK        -0.0989 
     18 CA         29.3354   28.5774   -1.0927 C.3       5 UNK         0.0716 
     19 N          28.0163   27.9461   -1.2492 N.am      5 UNK        -0.4135 
     20 C          26.8836   28.3450   -0.6504 C.2       4 UNK         0.5031 
     21 O          26.8411   29.2179    0.2170 O.2       4 UNK        -0.5229 
     22 CA         25.5762   27.6913   -1.1120 C.3       4 UNK         0.0329 
     23 CB         25.5346   27.4214   -2.6309 C.3       4 UNK        -0.2001 
     24 N          25.3023   26.4573   -0.3734 N.am      4 UNK        -0.4303 
     25 C          24.0650   26.0386   -0.0703 C.2       3 UNK         0.5044 
     26 O          23.0500   26.7051   -0.2813 O.2       3 UNK        -0.5152 
     27 CA         23.8960   24.6275    0.5182 C.3       3 UNK         0.0319 
     28 CB         23.7381   23.5996   -0.6144 C.3       3 UNK        -0.2001 
     29 N          24.9745   24.1905    1.4014 N.am      3 UNK        -0.4354 
     30 C          25.1925   24.6243    2.6480 C.2       2 UNK         0.4964 
     31 O          24.5476   25.5308    3.1747 O.2       2 UNK        -0.5047 
     32 CA         26.3025   23.9236    3.4628 C.3       2 UNK         0.0288 
     33 CB         25.7382   22.7215    4.2461 C.3       2 UNK        -0.2113 
     34 N          27.4975   23.5525    2.6851 N.am      2 UNK        -0.4145 
     35 C          27.6082   22.6606    1.6909 C.2       1 UNK         0.5006 
     36 O          26.7007   21.9024    1.3398 O.2       1 UNK        -0.5103 
     37 C          29.8628   28.6059    0.3574 C.2       5 UNK         0.5055 
     38 O          30.6404   29.4965    0.6986 O.2       5 UNK        -0.5220 
     39 N          29.3957   27.6721    1.1959 N.am      6 UNK        -0.4450 
     40 CA         29.6733   27.6149    2.6320 C.3       6 UNK         0.0367 
     41 CB         29.1259   26.2953    3.1822 C.3       6 UNK        -0.1929 
     42 C          29.1364   28.8095    3.4468 C.2       6 UNK         0.5070 
     43 O          29.5169   28.9542    4.6064 O.2       6 UNK        -0.5237 
     44 N          28.2806   29.6525    2.8495 N.am      7 UNK        -0.4739 
     45 CA         27.8598   30.9350    3.4198 C.3       7 UNK         0.0276 
     46 CB         26.6206   31.4393    2.6630 C.3       7 UNK        -0.1927 
     47 C          28.9719   32.0047    3.4067 C.2       7 UNK         0.5013 
     48 O          28.8467   32.9976    4.1259 O.2       7 UNK        -0.5193 
     49 N          30.0207   31.8098    2.5920 N.am      8 UNK        -0.4253 
     50 CA         31.1911   32.6859    2.5208 C.3       8 UNK         0.0242 
     51 CB         31.9351   32.4224    1.2002 C.3       8 UNK        -0.2000 
     52 C          32.1354   32.4773    3.7166 C.2       8 UNK         0.4948 
     53 O          32.0610   31.4569    4.4069 O.2       8 UNK        -0.5275 
     54 N          33.0652   33.4263    3.8946 N.am      9 UNK        -0.4246 
     55 CA         34.0660   33.4846    4.9715 C.3       9 UNK         0.0261 
     56 CB         34.8648   34.7920    4.8315 C.3       9 UNK        -0.1959 
     57 C          35.0225   32.2768    5.0803 C.2       9 UNK         0.5033 
     58 O          35.7457   32.1788    6.0729 O.2       9 UNK        -0.5390 
     59 N          35.0052   31.3769    4.0869 N.am      10 UNK        -0.4215 
     60 CA         35.6842   30.0805    4.0943 C.3       10 UNK         0.0240 
     61 CB         35.4814   29.3965    2.7316 C.3       10 UNK        -0.1982 
     62 C          35.2217   29.1526    5.2343 C.2       10 UNK         0.4970 
     63 O          36.0506   28.4092    5.7609 O.2       10 UNK        -0.4916 
     64 N          33.9340   29.2170    5.6023 N.am      11 UNK        -0.4279 
     65 CA         33.3573   28.4656    6.7296 C.3       11 UNK         0.1003 
     66 C          32.0733   29.0856    7.3509 C.2       11 UNK         0.5709 
     67 N          31.5284   30.1860    6.8483 N.am      11 UNK        -0.7358 
     68 O          31.5804   28.5812    8.3577 O.2       11 UNK        -0.4999 
     69 C69        33.2476   26.9323    6.4763 C.3       12 UNK        -0.0954 
     70 S70        32.3042   26.4647    4.9846 S.3       12 UNK        -0.2268 
     71 C71        33.6516   25.8872    3.9123 C.3       12 UNK         0.0203 
     72 H72        28.1412   23.1885   -3.0066 H         1 UNK         0.0888 
     73 H73        26.7152   24.1751   -2.6824 H         1 UNK         0.0888 
     74 H74        28.2837   24.9442   -2.9496 H         1 UNK         0.0888 
     75 H75        28.8785   22.1789   -1.1523 H         1 UNK         0.3017 
     76 H76        29.5496   23.4970    1.2433 H         1 UNK         0.0873 
     77 H77        29.9952   21.2526    2.1605 H         1 UNK         0.0745 
     78 H78        29.0741   20.4934    0.8907 H         1 UNK         0.0745 
     79 H79        32.3925   21.3478    2.1512 H         1 UNK         0.0705 
     80 H80        33.4691   21.4400    0.7825 H         1 UNK         0.0705 
     81 H81        33.1283   23.2761    3.3644 H         1 UNK         0.1334 
     82 H82        33.0918   27.1662    1.5720 H         1 UNK         0.1417 
     83 H83        32.1890   23.7134   -0.8005 H         1 UNK         0.1562 
     84 H84        33.2267   26.1460   -1.6960 H         1 UNK         0.0748 
     85 H85        32.6427   27.4590   -0.7082 H         1 UNK         0.0748 
     86 H86        29.9958   28.0768   -3.0996 H         1 UNK         0.0940 
     87 H87        31.2802   28.6267   -2.0816 H         1 UNK         0.0940 
     88 H88        29.1883   29.6248   -1.3655 H         1 UNK         0.0703 
     89 H89        27.9719   27.1741   -1.8969 H         1 UNK         0.3081 
     90 H90        24.7965   28.4237   -0.8909 H         1 UNK         0.0719 
     91 H91        26.2073   26.6173   -2.9272 H         1 UNK         0.0809 
     92 H92        24.5304   27.1412   -2.9496 H         1 UNK         0.0809 
     93 H93        25.8116   28.3119   -3.1971 H         1 UNK         0.0809 
     94 H94        26.1055   25.8659   -0.1641 H         1 UNK         0.2990 
     95 H95        22.9723   24.6284    1.1010 H         1 UNK         0.0690 
     96 H96        23.5090   22.6087   -0.2216 H         1 UNK         0.0788 
     97 H97        24.6446   23.5203   -1.2156 H         1 UNK         0.0788 
     98 H98        22.9238   23.8773   -1.2854 H         1 UNK         0.0788 
     99 H99        25.5414   23.4107    1.0826 H         1 UNK         0.2993 
    100 H100       26.6438   24.6515    4.2006 H         1 UNK         0.0949 
    101 H101       26.5051   22.2569    4.8659 H         1 UNK         0.0767 
    102 H102       24.9319   23.0363    4.9099 H         1 UNK         0.0767 
    103 H103       25.3299   21.9556    3.5863 H         1 UNK         0.0767 
    104 H104       28.3032   24.1328    2.8678 H         1 UNK         0.3013 
    105 H105       28.7802   26.9650    0.8149 H         1 UNK         0.3121 
    106 H106       30.7573   27.6179    2.7545 H         1 UNK         0.0774 
    107 H107       29.2932   26.2151    4.2574 H         1 UNK         0.0815 
    108 H108       28.0529   26.2251    3.0075 H         1 UNK         0.0815 
    109 H109       29.6262   25.4491    2.7127 H         1 UNK         0.0815 
    110 H110       27.9615   29.4487    1.9069 H         1 UNK         0.2987 
    111 H111       27.5804   30.7710    4.4629 H         1 UNK         0.0949 
    112 H112       26.8437   31.6388    1.6140 H         1 UNK         0.0806 
    113 H113       25.8092   30.7121    2.6995 H         1 UNK         0.0806 
    114 H114       26.2458   32.3662    3.0992 H         1 UNK         0.0806 
    115 H115       30.0739   30.9470    2.0608 H         1 UNK         0.3010 
    116 H116       30.8466   33.7223    2.5285 H         1 UNK         0.0829 
    117 H117       31.2649   32.5008    0.3438 H         1 UNK         0.0813 
    118 H118       32.7383   33.1438    1.0458 H         1 UNK         0.0813 
    119 H119       32.3840   31.4284    1.1811 H         1 UNK         0.0813 
    120 H120       33.0662   34.2101    3.2571 H         1 UNK         0.3038 
    121 H121       33.5148   33.5234    5.9133 H         1 UNK         0.0769 
    122 H122       35.4175   34.8273    3.8918 H         1 UNK         0.0811 
    123 H123       35.5903   34.8985    5.6395 H         1 UNK         0.0811 
    124 H124       34.2123   35.6644    4.8725 H         1 UNK         0.0811 
    125 H125       34.3710   31.5493    3.3215 H         1 UNK         0.3204 
    126 H126       36.7512   30.2675    4.2324 H         1 UNK         0.0748 
    127 H127       35.9975   28.4359    2.6963 H         1 UNK         0.0771 
    128 H128       34.4264   29.2084    2.5269 H         1 UNK         0.0771 
    129 H129       35.8785   30.0045    1.9185 H         1 UNK         0.0771 
    130 H130       33.3091   29.8552    5.1249 H         1 UNK         0.2980 
    131 H131       34.0773   28.5793    7.5424 H         1 UNK         0.0545 
    132 H132       31.8302   30.6055    5.9731 H         1 UNK         0.3459 
    133 H133       30.7005   30.5454    7.2934 H         1 UNK         0.3459 
    134 H134       34.2485   26.5044    6.4126 H         1 UNK         0.0616 
    135 H135       32.7897   26.4330    7.3317 H         1 UNK         0.0616 
    136 H136       34.2466   25.1475    4.4503 H         1 UNK         0.0634 
    137 H137       34.3218   26.7202    3.6996 H         1 UNK         0.0634 
@<TRIPOS>BOND
     1    1    2 1    
     2    1   72 1    
     3    1   73 1    
     4    1   74 1    
     5    2    3 2    
     6    2    4 am   BACKBONE|DICT|INTERRES
     7    4    5 1    
     8    4   75 1    
     9    5    6 1    
    10    5   35 1    
    11    5   76 1    
    12    6    7 1    
    13    6   77 1    
    14    6   78 1    
    15    7    8 1    
    16    8    9 1    
    17    8   79 1    
    18    8   80 1    
    19    9   10 ar   
    20    9   14 ar   
    21   10   11 ar   
    22   10   81 1    
    23   11   12 ar   
    24   11   71 1    
    25   12   13 ar   
    26   12   82 1    
    27   13   14 ar   
    28   13   15 1    
    29   14   83 1    
    30   15   16 1    
    31   15   84 1    
    32   15   85 1    
    33   16   17 1    
    34   17   18 1    
    35   17   86 1    
    36   17   87 1    
    37   18   19 1    
    38   18   37 1    
    39   18   88 1    
    40   19   20 am   BACKBONE|DICT|INTERRES
    41   19   89 1    
    42   20   21 2    
    43   20   22 1    
    44   22   23 1    
    45   22   24 1    
    46   22   90 1    
    47   23   91 1    
    48   23   92 1    
    49   23   93 1    
    50   24   25 am   BACKBONE|DICT|INTERRES
    51   24   94 1    
    52   25   26 2    
    53   25   27 1    
    54   27   28 1    
    55   27   29 1    
    56   27   95 1    
    57   28   96 1    
    58   28   97 1    
    59   28   98 1    
    60   29   30 am   BACKBONE|DICT|INTERRES
    61   29   99 1    
    62   30   31 2    
    63   30   32 1    
    64   32   33 1    
    65   32   34 1    
    66   32  100 1    
    67   33  101 1    
    68   33  102 1    
    69   33  103 1    
    70   34   35 am   BACKBONE|DICT|INTERRES
    71   34  104 1    
    72   35   36 2    
    73   37   38 2    
    74   37   39 am   BACKBONE|DICT|INTERRES
    75   39   40 1    
    76   39  105 1    
    77   40   41 1    
    78   40   42 1    
    79   40  106 1    
    80   41  107 1    
    81   41  108 1    
    82   41  109 1    
    83   42   43 2    
    84   42   44 am   BACKBONE|DICT|INTERRES
    85   44   45 1    
    86   44  110 1    
    87   45   46 1    
    88   45   47 1    
    89   45  111 1    
    90   46  112 1    
    91   46  113 1    
    92   46  114 1    
    93   47   48 2    
    94   47   49 am   BACKBONE|DICT|INTERRES
    95   49   50 1    
    96   49  115 1    
    97   50   51 1    
    98   50   52 1    
    99   50  116 1    
   100   51  117 1    
   101   51  118 1    
   102   51  119 1    
   103   52   53 2    
   104   52   54 am   BACKBONE|DICT|INTERRES
   105   54   55 1    
   106   54  120 1    
   107   55   56 1    
   108   55   57 1    
   109   55  121 1    
   110   56  122 1    
   111   56  123 1    
   112   56  124 1    
   113   57   58 2    
   114   57   59 am   BACKBONE|DICT|INTERRES
   115   59   60 1    
   116   59  125 1    
   117   60   61 1    
   118   60   62 1    
   119   60  126 1    
   120   61  127 1    
   121   61  128 1    
   122   61  129 1    
   123   62   63 2    
   124   62   64 am   BACKBONE|DICT|INTERRES
   125   64   65 1    
   126   64  130 1    
   127   65   66 1    
   128   65   69 1    
   129   65  131 1    
   130   66   67 am   BACKBONE|DICT|INTERRES
   131   66   68 2    
   132   67  132 1    
   133   67  133 1    
   134   69   70 1    
   135   69  134 1    
   136   69  135 1    
   137   70   71 1    
   138   71  136 1    
   139   71  137 1    
@<TRIPOS>SUBSTRUCTURE
     1 UNK         1 GROUP             0       ****    0 ROOT    
