@<TRIPOS>MOLECULE
3R136
137   139    1
SMALL
USER_CHARGES


@<TRIPOS>ATOM
      1 CA         25.7313   20.5669   -0.7664 C.3       0 UNK        -0.1979 
      2 C          26.6170   21.3481    0.1920 C.2       0 UNK         0.4864 
      3 O          26.1850   21.6579    1.3041 O.2       0 UNK        -0.5359 
      4 N          27.8443   21.6811   -0.2372 N.am      1 UNK        -0.4318 
      5 CA         28.8384   22.4752    0.4989 C.3       1 UNK         0.0824 
      6 C6         29.5280   21.6711    1.6413 C.3       12 UNK        -0.0944 
      7 S7         30.9072   20.6882    0.9585 S.3       12 UNK        -0.2672 
      8 C8         32.3832   21.6414    1.4707 C.3       12 UNK         0.0333 
      9 C9         32.2273   23.1467    1.2754 C.ar      12 UNK        -0.0807 
     10 C10        32.1167   23.9859    2.3898 C.ar      12 UNK        -0.0894 
     11 C11        31.9196   25.3599    2.2290 C.ar      12 UNK        -0.0804 
     12 C12        31.8417   25.8951    0.9419 C.ar      12 UNK        -0.0824 
     13 C13        31.9529   25.0712   -0.1808 C.ar      12 UNK        -0.0762 
     14 C14        32.1644   23.6985   -0.0091 C.ar      12 UNK        -0.0782 
     15 C15        31.8283   25.6652   -1.5758 C.3       12 UNK         0.0230 
     16 S16        30.1507   25.4184   -2.2462 S.3       12 UNK        -0.2608 
     17 C17        29.5697   27.1198   -2.6172 C.3       12 UNK        -0.0989 
     18 CA         28.2548   27.5725   -1.9129 C.3       5 UNK         0.0716 
     19 N          27.2527   26.5165   -1.8364 N.am      5 UNK        -0.4135 
     20 C          26.0819   26.4772   -2.4783 C.2       4 UNK         0.5031 
     21 O          25.6892   27.3527   -3.2506 O.2       4 UNK        -0.5229 
     22 CA         25.1909   25.2569   -2.2035 C.3       4 UNK         0.0329 
     23 CB         25.7560   24.0067   -2.9006 C.3       4 UNK        -0.2001 
     24 N          25.0765   24.9956   -0.7669 N.am      4 UNK        -0.4303 
     25 C          23.9910   25.2445   -0.0207 C.2       3 UNK         0.5044 
     26 O          22.9560   25.7416   -0.4665 O.2       3 UNK        -0.5152 
     27 CA         24.0408   24.8587    1.4715 C.3       3 UNK         0.0319 
     28 CB         23.2676   23.5515    1.7108 C.3       3 UNK        -0.2001 
     29 N          25.4040   24.7108    1.9875 N.am      3 UNK        -0.4354 
     30 C          26.1905   25.7416    2.3341 C.2       2 UNK         0.4964 
     31 O          25.8071   26.9109    2.3445 O.2       2 UNK        -0.5047 
     32 CA         27.6539   25.4360    2.7184 C.3       2 UNK         0.0288 
     33 CB         27.8282   25.4636    4.2453 C.3       2 UNK        -0.2113 
     34 N          28.1850   24.1706    2.1973 N.am      2 UNK        -0.4145 
     35 C          28.2443   23.8407    0.8992 C.2       1 UNK         0.5006 
     36 O          27.7930   24.5553    0.0047 O.2       1 UNK        -0.5103 
     37 C          28.4493   28.0955   -0.4825 C.2       5 UNK         0.5055 
     38 O          29.3072   27.6067    0.2511 O.2       5 UNK        -0.5220 
     39 N          27.6108   29.0631   -0.0888 N.am      6 UNK        -0.4450 
     40 CA         27.5933   29.6828    1.2391 C.3       6 UNK         0.0367 
     41 CB         26.2387   30.3859    1.4436 C.3       6 UNK        -0.1929 
     42 C          28.7885   30.6314    1.4551 C.2       6 UNK         0.5070 
     43 O          28.6128   31.8494    1.5330 O.2       6 UNK        -0.5237 
     44 N          29.9930   30.0551    1.5338 N.am      7 UNK        -0.4739 
     45 CA         31.2671   30.7376    1.7668 C.3       7 UNK         0.0276 
     46 CB         32.4119   29.8179    1.3073 C.3       7 UNK        -0.1927 
     47 C          31.4132   31.1855    3.2345 C.2       7 UNK         0.5013 
     48 O          32.2371   30.6434    3.9765 O.2       7 UNK        -0.5193 
     49 N          30.5856   32.1636    3.6273 N.am      8 UNK        -0.4253 
     50 CA         30.5687   32.8037    4.9444 C.3       8 UNK         0.0242 
     51 CB         29.4646   33.8734    4.9702 C.3       8 UNK        -0.2000 
     52 C          31.9291   33.4227    5.3067 C.2       8 UNK         0.4948 
     53 O          32.6347   33.9176    4.4227 O.2       8 UNK        -0.5275 
     54 N          32.2832   33.3493    6.5962 N.am      9 UNK        -0.4246 
     55 CA         33.5710   33.7108    7.2082 C.3       9 UNK         0.0261 
     56 CB         33.9260   35.1964    6.9922 C.3       9 UNK        -0.1959 
     57 C          34.7346   32.7861    6.7994 C.2       9 UNK         0.5033 
     58 O          35.4782   32.3482    7.6778 O.2       9 UNK        -0.5390 
     59 N          34.8548   32.4657    5.5034 N.am      10 UNK        -0.4215 
     60 CA         35.8463   31.5423    4.9397 C.3       10 UNK         0.0240 
     61 CB         35.7469   31.5464    3.4062 C.3       10 UNK        -0.1982 
     62 C          35.7219   30.1140    5.5010 C.2       10 UNK         0.4970 
     63 O          36.7322   29.5381    5.9084 O.2       10 UNK        -0.4916 
     64 N          34.4882   29.5955    5.5597 N.am      11 UNK        -0.4279 
     65 CA         34.1397   28.3411    6.2499 C.3       11 UNK         0.1003 
     66 C          33.9389   28.4968    7.7901 C.2       11 UNK         0.5709 
     67 N          34.2030   29.6479    8.3985 N.am      11 UNK        -0.7358 
     68 O          33.5504   27.5416    8.4616 O.2       11 UNK        -0.4999 
     69 C69        32.9330   27.6378    5.5716 C.3       12 UNK        -0.0954 
     70 S70        33.3643   26.9814    3.9284 S.3       12 UNK        -0.2268 
     71 C71        31.7688   26.2601    3.4449 C.3       12 UNK         0.0203 
     72 H72        25.4679   19.6032   -0.3315 H         1 UNK         0.0888 
     73 H73        24.8110   21.1184   -0.9575 H         1 UNK         0.0888 
     74 H74        26.2230   20.3864   -1.7222 H         1 UNK         0.0888 
     75 H75        28.1267   21.4079   -1.1678 H         1 UNK         0.3017 
     76 H76        29.5950   22.7427   -0.2393 H         1 UNK         0.0873 
     77 H77        29.9271   22.3036    2.4328 H         1 UNK         0.0745 
     78 H78        28.8221   21.0000    2.1334 H         1 UNK         0.0745 
     79 H79        32.5974   21.4120    2.5158 H         1 UNK         0.0705 
     80 H80        33.2454   21.2911    0.9014 H         1 UNK         0.0705 
     81 H81        32.1671   23.5684    3.3862 H         1 UNK         0.1334 
     82 H82        31.6794   26.9550    0.8128 H         1 UNK         0.1417 
     83 H83        32.2414   23.0538   -0.8744 H         1 UNK         0.1562 
     84 H84        32.5480   25.1893   -2.2434 H         1 UNK         0.0748 
     85 H85        32.0899   26.7237   -1.5569 H         1 UNK         0.0748 
     86 H86        29.4049   27.1520   -3.6952 H         1 UNK         0.0940 
     87 H87        30.3644   27.8451   -2.4366 H         1 UNK         0.0940 
     88 H88        27.8629   28.4089   -2.4959 H         1 UNK         0.0703 
     89 H89        27.4952   25.7597   -1.1948 H         1 UNK         0.3081 
     90 H90        24.2071   25.4610   -2.6316 H         1 UNK         0.0719 
     91 H91        26.7398   23.7339   -2.5157 H         1 UNK         0.0809 
     92 H92        25.0962   23.1493   -2.7677 H         1 UNK         0.0809 
     93 H93        25.8601   24.1721   -3.9738 H         1 UNK         0.0809 
     94 H94        25.9158   24.6550   -0.3073 H         1 UNK         0.2990 
     95 H95        23.5393   25.6512    2.0312 H         1 UNK         0.0690 
     96 H96        23.2629   23.2796    2.7664 H         1 UNK         0.0788 
     97 H97        23.6963   22.7194    1.1514 H         1 UNK         0.0788 
     98 H98        22.2274   23.6511    1.3977 H         1 UNK         0.0788 
     99 H99        25.7888   23.7727    1.9939 H         1 UNK         0.2993 
    100 H100       28.2639   26.2352    2.2925 H         1 UNK         0.0949 
    101 H101       27.4812   26.4111    4.6607 H         1 UNK         0.0767 
    102 H102       27.2610   24.6675    4.7297 H         1 UNK         0.0767 
    103 H103       28.8746   25.3530    4.5290 H         1 UNK         0.0767 
    104 H104       28.5280   23.5106    2.8791 H         1 UNK         0.3013 
    105 H105       26.9333   29.4119   -0.7516 H         1 UNK         0.3121 
    106 H106       27.6702   28.8932    1.9897 H         1 UNK         0.0774 
    107 H107       26.1839   30.8453    2.4314 H         1 UNK         0.0815 
    108 H108       26.0737   31.1733    0.7073 H         1 UNK         0.0815 
    109 H109       25.4124   29.6779    1.3729 H         1 UNK         0.0815 
    110 H110       30.0292   29.0505    1.3867 H         1 UNK         0.2987 
    111 H111       31.2968   31.6365    1.1466 H         1 UNK         0.0949 
    112 H112       32.4682   28.9141    1.9123 H         1 UNK         0.0806 
    113 H113       32.2900   29.5184    0.2661 H         1 UNK         0.0806 
    114 H114       33.3744   30.3230    1.3867 H         1 UNK         0.0806 
    115 H115       29.9068   32.4913    2.9479 H         1 UNK         0.3010 
    116 H116       30.3277   32.0295    5.6765 H         1 UNK         0.0829 
    117 H117       28.4865   33.4406    4.7570 H         1 UNK         0.0813 
    118 H118       29.4008   34.3493    5.9500 H         1 UNK         0.0813 
    119 H119       29.6509   34.6602    4.2371 H         1 UNK         0.0813 
    120 H120       31.6278   32.9129    7.2316 H         1 UNK         0.3038 
    121 H121       33.4276   33.5694    8.2812 H         1 UNK         0.0769 
    122 H122       34.1337   35.4248    5.9462 H         1 UNK         0.0811 
    123 H123       34.8166   35.4667    7.5612 H         1 UNK         0.0811 
    124 H124       33.1184   35.8495    7.3246 H         1 UNK         0.0811 
    125 H125       34.1791   32.8779    4.8636 H         1 UNK         0.3204 
    126 H126       36.8344   31.9178    5.2148 H         1 UNK         0.0748 
    127 H127       36.4755   30.8646    2.9640 H         1 UNK         0.0771 
    128 H128       34.7591   31.2345    3.0681 H         1 UNK         0.0771 
    129 H129       35.9418   32.5391    2.9988 H         1 UNK         0.0771 
    130 H130       33.7120   30.1044    5.1441 H         1 UNK         0.2980 
    131 H131       34.9908   27.6621    6.1605 H         1 UNK         0.0545 
    132 H132       34.0705   29.7085    9.3962 H         1 UNK         0.3459 
    133 H133       34.5981   30.4336    7.8969 H         1 UNK         0.3459 
    134 H134       32.5844   26.7925    6.1680 H         1 UNK         0.0616 
    135 H135       32.0866   28.3212    5.4798 H         1 UNK         0.0616 
    136 H136       31.0566   27.0607    3.2375 H         1 UNK         0.0634 
    137 H137       31.3596   25.6896    4.2800 H         1 UNK         0.0634 
@<TRIPOS>BOND
     1    1    2 1    
     2    1   72 1    
     3    1   73 1    
     4    1   74 1    
     5    2    3 2    
     6    2    4 am   BACKBONE|DICT|INTERRES
     7    4    5 1    
     8    4   75 1    
     9    5    6 1    
    10    5   35 1    
    11    5   76 1    
    12    6    7 1    
    13    6   77 1    
    14    6   78 1    
    15    7    8 1    
    16    8    9 1    
    17    8   79 1    
    18    8   80 1    
    19    9   10 ar   
    20    9   14 ar   
    21   10   11 ar   
    22   10   81 1    
    23   11   12 ar   
    24   11   71 1    
    25   12   13 ar   
    26   12   82 1    
    27   13   14 ar   
    28   13   15 1    
    29   14   83 1    
    30   15   16 1    
    31   15   84 1    
    32   15   85 1    
    33   16   17 1    
    34   17   18 1    
    35   17   86 1    
    36   17   87 1    
    37   18   19 1    
    38   18   37 1    
    39   18   88 1    
    40   19   20 am   BACKBONE|DICT|INTERRES
    41   19   89 1    
    42   20   21 2    
    43   20   22 1    
    44   22   23 1    
    45   22   24 1    
    46   22   90 1    
    47   23   91 1    
    48   23   92 1    
    49   23   93 1    
    50   24   25 am   BACKBONE|DICT|INTERRES
    51   24   94 1    
    52   25   26 2    
    53   25   27 1    
    54   27   28 1    
    55   27   29 1    
    56   27   95 1    
    57   28   96 1    
    58   28   97 1    
    59   28   98 1    
    60   29   30 am   BACKBONE|DICT|INTERRES
    61   29   99 1    
    62   30   31 2    
    63   30   32 1    
    64   32   33 1    
    65   32   34 1    
    66   32  100 1    
    67   33  101 1    
    68   33  102 1    
    69   33  103 1    
    70   34   35 am   BACKBONE|DICT|INTERRES
    71   34  104 1    
    72   35   36 2    
    73   37   38 2    
    74   37   39 am   BACKBONE|DICT|INTERRES
    75   39   40 1    
    76   39  105 1    
    77   40   41 1    
    78   40   42 1    
    79   40  106 1    
    80   41  107 1    
    81   41  108 1    
    82   41  109 1    
    83   42   43 2    
    84   42   44 am   BACKBONE|DICT|INTERRES
    85   44   45 1    
    86   44  110 1    
    87   45   46 1    
    88   45   47 1    
    89   45  111 1    
    90   46  112 1    
    91   46  113 1    
    92   46  114 1    
    93   47   48 2    
    94   47   49 am   BACKBONE|DICT|INTERRES
    95   49   50 1    
    96   49  115 1    
    97   50   51 1    
    98   50   52 1    
    99   50  116 1    
   100   51  117 1    
   101   51  118 1    
   102   51  119 1    
   103   52   53 2    
   104   52   54 am   BACKBONE|DICT|INTERRES
   105   54   55 1    
   106   54  120 1    
   107   55   56 1    
   108   55   57 1    
   109   55  121 1    
   110   56  122 1    
   111   56  123 1    
   112   56  124 1    
   113   57   58 2    
   114   57   59 am   BACKBONE|DICT|INTERRES
   115   59   60 1    
   116   59  125 1    
   117   60   61 1    
   118   60   62 1    
   119   60  126 1    
   120   61  127 1    
   121   61  128 1    
   122   61  129 1    
   123   62   63 2    
   124   62   64 am   BACKBONE|DICT|INTERRES
   125   64   65 1    
   126   64  130 1    
   127   65   66 1    
   128   65   69 1    
   129   65  131 1    
   130   66   67 am   BACKBONE|DICT|INTERRES
   131   66   68 2    
   132   67  132 1    
   133   67  133 1    
   134   69   70 1    
   135   69  134 1    
   136   69  135 1    
   137   70   71 1    
   138   71  136 1    
   139   71  137 1    
@<TRIPOS>SUBSTRUCTURE
     1 UNK         1 GROUP             0       ****    0 ROOT    
