@<TRIPOS>MOLECULE
3R136
137   139    1
SMALL
USER_CHARGES


@<TRIPOS>ATOM
      1 CA         31.7967   27.8191   -2.0388 C.3       0 UNK        -0.1979 
      2 C          30.5624   27.0514   -1.5907 C.2       0 UNK         0.4864 
      3 O          29.4537   27.5853   -1.6499 O.2       0 UNK        -0.5359 
      4 N          30.7425   25.8026   -1.1405 N.am      1 UNK        -0.4318 
      5 CA         29.6954   24.9208   -0.6052 C.3       1 UNK         0.0824 
      6 C6         30.2812   23.8323    0.3366 C.3       12 UNK        -0.0944 
      7 S7         31.3523   24.5142    1.6493 S.3       12 UNK        -0.2672 
      8 C8         30.7797   23.6641    3.1617 C.3       12 UNK         0.0333 
      9 C9         30.2305   24.6321    4.2040 C.ar      12 UNK        -0.0807 
     10 C10        30.9596   25.7714    4.5607 C.ar      12 UNK        -0.0894 
     11 C11        30.4743   26.6586    5.5224 C.ar      12 UNK        -0.0804 
     12 C12        29.2556   26.3926    6.1487 C.ar      12 UNK        -0.0824 
     13 C13        28.5221   25.2483    5.8188 C.ar      12 UNK        -0.0762 
     14 C14        29.0148   24.3702    4.8464 C.ar      12 UNK        -0.0782 
     15 C15        27.1998   24.9683    6.5240 C.3       12 UNK         0.0230 
     16 S16        25.7538   25.0998    5.4193 S.3       12 UNK        -0.2608 
     17 C17        26.0578   26.6768    4.5525 C.3       12 UNK        -0.0989 
     18 CA         26.4598   26.4097    3.0820 C.3       5 UNK         0.0716 
     19 N          25.3108   25.9466    2.2986 N.am      5 UNK        -0.4135 
     20 C          25.3706   25.4710    1.0505 C.2       4 UNK         0.5031 
     21 O          26.4224   25.3090    0.4261 O.2       4 UNK        -0.5229 
     22 CA         24.0175   25.1524    0.3890 C.3       4 UNK         0.0329 
     23 CB         23.3183   26.4465   -0.0605 C.3       4 UNK        -0.2001 
     24 N          24.1992   24.2955   -0.7792 N.am      4 UNK        -0.4303 
     25 C          24.4479   22.9826   -0.7477 C.2       3 UNK         0.5044 
     26 O          24.3619   22.2919    0.2687 O.2       3 UNK        -0.5152 
     27 CA         24.9067   22.3343   -2.0667 C.3       3 UNK         0.0319 
     28 CB         23.7267   22.1058   -3.0321 C.3       3 UNK        -0.2001 
     29 N          26.0196   23.0521   -2.7083 N.am      3 UNK        -0.4354 
     30 C          26.0307   24.2650   -3.2804 C.2       2 UNK         0.4964 
     31 O          25.0312   24.9755   -3.4089 O.2       2 UNK        -0.5047 
     32 CA         27.4081   24.7886   -3.7260 C.3       2 UNK         0.0288 
     33 CB         27.3030   26.0072   -4.6620 C.3       2 UNK        -0.2113 
     34 N          28.2333   25.1536   -2.5729 N.am      2 UNK        -0.4145 
     35 C          28.8538   24.3012   -1.7471 C.2       1 UNK         0.5006 
     36 O          28.8061   23.0761   -1.8921 O.2       1 UNK        -0.5103 
     37 C          27.1054   27.6567    2.4475 C.2       5 UNK         0.5055 
     38 O          26.3896   28.5271    1.9440 O.2       5 UNK        -0.5220 
     39 N          28.4425   27.7187    2.4943 N.am      6 UNK        -0.4450 
     40 CA         29.2320   28.8236    1.9524 C.3       6 UNK         0.0367 
     41 CB         30.7073   28.4017    1.8675 C.3       6 UNK        -0.1929 
     42 C          29.0944   30.0927    2.8077 C.2       6 UNK         0.5070 
     43 O          29.0473   30.0070    4.0374 O.2       6 UNK        -0.5237 
     44 N          29.0807   31.2526    2.1418 N.am      7 UNK        -0.4739 
     45 CA         29.1410   32.5701    2.7726 C.3       7 UNK         0.0276 
     46 CB         28.4936   33.6074    1.8367 C.3       7 UNK        -0.1927 
     47 C          30.6102   32.8974    3.0807 C.2       7 UNK         0.5013 
     48 O          31.2908   33.4843    2.2370 O.2       7 UNK        -0.5193 
     49 N          31.0779   32.4478    4.2544 N.am      8 UNK        -0.4253 
     50 CA         32.4785   32.4222    4.6902 C.3       8 UNK         0.0242 
     51 CB         33.0656   33.8462    4.8328 C.3       8 UNK        -0.2000 
     52 C          33.2863   31.4726    3.7867 C.2       8 UNK         0.4948 
     53 O          32.9765   30.2793    3.7725 O.2       8 UNK        -0.5275 
     54 N          34.2763   32.0011    3.0511 N.am      9 UNK        -0.4246 
     55 CA         35.1342   31.3185    2.0740 C.3       9 UNK         0.0261 
     56 CB         34.3222   30.9032    0.8265 C.3       9 UNK        -0.1959 
     57 C          35.9244   30.1523    2.6941 C.2       9 UNK         0.5033 
     58 O          37.0588   30.3540    3.1294 O.2       9 UNK        -0.5390 
     59 N          35.3062   28.9651    2.7341 N.am      10 UNK        -0.4215 
     60 CA         35.8109   27.7738    3.4159 C.3       10 UNK         0.0240 
     61 CB         34.9857   26.5534    2.9763 C.3       10 UNK        -0.1982 
     62 C          35.7952   27.9189    4.9486 C.2       10 UNK         0.4970 
     63 O          36.6801   27.3717    5.6077 O.2       10 UNK        -0.4916 
     64 N          34.8105   28.6537    5.4823 N.am      11 UNK        -0.4279 
     65 CA         34.7288   29.0203    6.9012 C.3       11 UNK         0.1003 
     66 C          35.5305   30.3208    7.1598 C.2       11 UNK         0.5709 
     67 N          36.3808   30.3402    8.1769 N.am      11 UNK        -0.7358 
     68 O          35.3557   31.3242    6.4712 O.2       11 UNK        -0.4999 
     69 C69        33.2616   29.1745    7.3749 C.3       12 UNK        -0.0954 
     70 S70        32.3464   27.6004    7.3107 S.3       12 UNK        -0.2268 
     71 C71        31.2678   27.9028    5.8824 C.3       12 UNK         0.0203 
     72 H72        32.7070   27.2310   -1.9237 H         1 UNK         0.0888 
     73 H73        31.7034   28.1001   -3.0875 H         1 UNK         0.0888 
     74 H74        31.9049   28.7294   -1.4496 H         1 UNK         0.0888 
     75 H75        31.6743   25.4132   -1.1243 H         1 UNK         0.3017 
     76 H76        29.0165   25.5332   -0.0078 H         1 UNK         0.0873 
     77 H77        29.4653   23.2638    0.7857 H         1 UNK         0.0745 
     78 H78        30.8785   23.1137   -0.2281 H         1 UNK         0.0745 
     79 H79        30.0423   22.8992    2.9167 H         1 UNK         0.0705 
     80 H80        31.6275   23.1349    3.5985 H         1 UNK         0.0705 
     81 H81        31.9096   25.9693    4.0859 H         1 UNK         0.1334 
     82 H82        28.8828   27.0780    6.8978 H         1 UNK         0.1417 
     83 H83        28.4467   23.4852    4.5927 H         1 UNK         0.1562 
     84 H84        27.0587   25.6521    7.3627 H         1 UNK         0.0748 
     85 H85        27.2263   23.9656    6.9528 H         1 UNK         0.0748 
     86 H86        26.8226   27.2463    5.0828 H         1 UNK         0.0940 
     87 H87        25.1560   27.2901    4.6031 H         1 UNK         0.0940 
     88 H88        27.2054   25.6124    3.0570 H         1 UNK         0.0703 
     89 H89        24.4072   26.0628    2.7321 H         1 UNK         0.3081 
     90 H90        23.3839   24.6360    1.1134 H         1 UNK         0.0719 
     91 H91        23.9240   27.0011   -0.7789 H         1 UNK         0.0809 
     92 H92        22.3557   26.2355   -0.5268 H         1 UNK         0.0809 
     93 H93        23.1287   27.1091    0.7849 H         1 UNK         0.0809 
     94 H94        24.3540   24.7639   -1.6681 H         1 UNK         0.2990 
     95 H95        25.3071   21.3526   -1.8085 H         1 UNK         0.0690 
     96 H96        24.0520   21.6018   -3.9422 H         1 UNK         0.0788 
     97 H97        23.2417   23.0386   -3.3206 H         1 UNK         0.0788 
     98 H98        22.9649   21.4780   -2.5683 H         1 UNK         0.0788 
     99 H99        26.9317   22.6276   -2.5676 H         1 UNK         0.2993 
    100 H100       27.9054   23.9867   -4.2763 H         1 UNK         0.0949 
    101 H101       28.2848   26.3145   -5.0230 H         1 UNK         0.0767 
    102 H102       26.6935   25.7766   -5.5369 H         1 UNK         0.0767 
    103 H103       26.8480   26.8635   -4.1620 H         1 UNK         0.0767 
    104 H104       28.3426   26.1448   -2.3754 H         1 UNK         0.3013 
    105 H105       28.9541   26.9962    2.9812 H         1 UNK         0.3121 
    106 H106       28.8730   29.0293    0.9411 H         1 UNK         0.0774 
    107 H107       31.3017   29.1689    1.3712 H         1 UNK         0.0815 
    108 H108       30.8292   27.4783    1.3042 H         1 UNK         0.0815 
    109 H109       31.1405   28.2482    2.8545 H         1 UNK         0.0815 
    110 H110       29.1579   31.2369    1.1346 H         1 UNK         0.2987 
    111 H111       28.5770   32.5625    3.7085 H         1 UNK         0.0949 
    112 H112       28.9872   33.6472    0.8648 H         1 UNK         0.0806 
    113 H113       27.4403   33.3835    1.6673 H         1 UNK         0.0806 
    114 H114       28.5465   34.6071    2.2699 H         1 UNK         0.0806 
    115 H115       30.4435   31.8957    4.8174 H         1 UNK         0.3010 
    116 H116       32.4839   31.9730    5.6833 H         1 UNK         0.0829 
    117 H117       33.1085   34.3843    3.8858 H         1 UNK         0.0813 
    118 H118       32.4683   34.4443    5.5210 H         1 UNK         0.0813 
    119 H119       34.0769   33.8102    5.2408 H         1 UNK         0.0813 
    120 H120       34.4551   32.9887    3.1650 H         1 UNK         0.3038 
    121 H121       35.8731   32.0528    1.7489 H         1 UNK         0.0769 
    122 H122       34.9528   30.3855    0.1024 H         1 UNK         0.0811 
    123 H123       33.4888   30.2440    1.0678 H         1 UNK         0.0811 
    124 H124       33.9081   31.7778    0.3245 H         1 UNK         0.0811 
    125 H125       34.3451   28.9388    2.4222 H         1 UNK         0.3204 
    126 H126       36.8471   27.6180    3.1080 H         1 UNK         0.0748 
    127 H127       35.0722   26.3815    1.9032 H         1 UNK         0.0771 
    128 H128       35.3280   25.6469    3.4776 H         1 UNK         0.0771 
    129 H129       33.9284   26.6774    3.2100 H         1 UNK         0.0771 
    130 H130       34.1522   29.1192    4.8657 H         1 UNK         0.2980 
    131 H131       35.1773   28.2214    7.4957 H         1 UNK         0.0545 
    132 H132       36.8969   31.1852    8.3657 H         1 UNK         0.3459 
    133 H133       36.5240   29.5260    8.7540 H         1 UNK         0.3459 
    134 H134       33.2320   29.5203    8.4098 H         1 UNK         0.0616 
    135 H135       32.7390   29.9303    6.7878 H         1 UNK         0.0616 
    136 H136       30.5924   28.7318    6.0996 H         1 UNK         0.0634 
    137 H137       31.8802   28.2148    5.0371 H         1 UNK         0.0634 
@<TRIPOS>BOND
     1    1    2 1    
     2    1   72 1    
     3    1   73 1    
     4    1   74 1    
     5    2    3 2    
     6    2    4 am   BACKBONE|DICT|INTERRES
     7    4    5 1    
     8    4   75 1    
     9    5    6 1    
    10    5   35 1    
    11    5   76 1    
    12    6    7 1    
    13    6   77 1    
    14    6   78 1    
    15    7    8 1    
    16    8    9 1    
    17    8   79 1    
    18    8   80 1    
    19    9   10 ar   
    20    9   14 ar   
    21   10   11 ar   
    22   10   81 1    
    23   11   12 ar   
    24   11   71 1    
    25   12   13 ar   
    26   12   82 1    
    27   13   14 ar   
    28   13   15 1    
    29   14   83 1    
    30   15   16 1    
    31   15   84 1    
    32   15   85 1    
    33   16   17 1    
    34   17   18 1    
    35   17   86 1    
    36   17   87 1    
    37   18   19 1    
    38   18   37 1    
    39   18   88 1    
    40   19   20 am   BACKBONE|DICT|INTERRES
    41   19   89 1    
    42   20   21 2    
    43   20   22 1    
    44   22   23 1    
    45   22   24 1    
    46   22   90 1    
    47   23   91 1    
    48   23   92 1    
    49   23   93 1    
    50   24   25 am   BACKBONE|DICT|INTERRES
    51   24   94 1    
    52   25   26 2    
    53   25   27 1    
    54   27   28 1    
    55   27   29 1    
    56   27   95 1    
    57   28   96 1    
    58   28   97 1    
    59   28   98 1    
    60   29   30 am   BACKBONE|DICT|INTERRES
    61   29   99 1    
    62   30   31 2    
    63   30   32 1    
    64   32   33 1    
    65   32   34 1    
    66   32  100 1    
    67   33  101 1    
    68   33  102 1    
    69   33  103 1    
    70   34   35 am   BACKBONE|DICT|INTERRES
    71   34  104 1    
    72   35   36 2    
    73   37   38 2    
    74   37   39 am   BACKBONE|DICT|INTERRES
    75   39   40 1    
    76   39  105 1    
    77   40   41 1    
    78   40   42 1    
    79   40  106 1    
    80   41  107 1    
    81   41  108 1    
    82   41  109 1    
    83   42   43 2    
    84   42   44 am   BACKBONE|DICT|INTERRES
    85   44   45 1    
    86   44  110 1    
    87   45   46 1    
    88   45   47 1    
    89   45  111 1    
    90   46  112 1    
    91   46  113 1    
    92   46  114 1    
    93   47   48 2    
    94   47   49 am   BACKBONE|DICT|INTERRES
    95   49   50 1    
    96   49  115 1    
    97   50   51 1    
    98   50   52 1    
    99   50  116 1    
   100   51  117 1    
   101   51  118 1    
   102   51  119 1    
   103   52   53 2    
   104   52   54 am   BACKBONE|DICT|INTERRES
   105   54   55 1    
   106   54  120 1    
   107   55   56 1    
   108   55   57 1    
   109   55  121 1    
   110   56  122 1    
   111   56  123 1    
   112   56  124 1    
   113   57   58 2    
   114   57   59 am   BACKBONE|DICT|INTERRES
   115   59   60 1    
   116   59  125 1    
   117   60   61 1    
   118   60   62 1    
   119   60  126 1    
   120   61  127 1    
   121   61  128 1    
   122   61  129 1    
   123   62   63 2    
   124   62   64 am   BACKBONE|DICT|INTERRES
   125   64   65 1    
   126   64  130 1    
   127   65   66 1    
   128   65   69 1    
   129   65  131 1    
   130   66   67 am   BACKBONE|DICT|INTERRES
   131   66   68 2    
   132   67  132 1    
   133   67  133 1    
   134   69   70 1    
   135   69  134 1    
   136   69  135 1    
   137   70   71 1    
   138   71  136 1    
   139   71  137 1    
@<TRIPOS>SUBSTRUCTURE
     1 UNK         1 GROUP             0       ****    0 ROOT    
