@<TRIPOS>MOLECULE
3R136
137   139    1
SMALL
USER_CHARGES


@<TRIPOS>ATOM
      1 CA         27.6002   29.5534   -0.5068 C.3       0 UNK        -0.1979 
      2 C          27.9070   28.0776   -0.2988 C.2       0 UNK         0.4864 
      3 O          27.0559   27.3406    0.1987 O.2       0 UNK        -0.5359 
      4 N          29.1076   27.6345   -0.6951 N.am      1 UNK        -0.4318 
      5 CA         29.5676   26.2392   -0.6722 C.3       1 UNK         0.0824 
      6 C6         31.0226   26.1517   -1.2034 C.3       12 UNK        -0.0944 
      7 S7         31.7528   24.4791   -1.1806 S.3       12 UNK        -0.2672 
      8 C8         32.9656   24.6156    0.1690 C.3       12 UNK         0.0333 
      9 C9         32.2926   24.6454    1.5324 C.ar      12 UNK        -0.0807 
     10 C10        32.3066   25.8068    2.3104 C.ar      12 UNK        -0.0894 
     11 C11        31.7138   25.8196    3.5771 C.ar      12 UNK        -0.0804 
     12 C12        31.1029   24.6605    4.0619 C.ar      12 UNK        -0.0824 
     13 C13        31.0646   23.5001    3.2826 C.ar      12 UNK        -0.0762 
     14 C14        31.6683   23.4961    2.0233 C.ar      12 UNK        -0.0782 
     15 C15        30.3625   22.2505    3.7890 C.3       12 UNK         0.0230 
     16 S16        28.6802   22.1166    3.1053 S.3       12 UNK        -0.2608 
     17 C17        27.8525   23.5283    3.9132 C.3       12 UNK        -0.0989 
     18 CA         27.5327   24.6952    2.9300 C.3       5 UNK         0.0716 
     19 N          26.6437   24.2822    1.8329 N.am      5 UNK        -0.4135 
     20 C          25.3892   23.8250    1.9729 C.2       4 UNK         0.5031 
     21 O          24.7773   23.7935    3.0430 O.2       4 UNK        -0.5229 
     22 CA         24.7220   23.2843    0.6960 C.3       4 UNK         0.0329 
     23 CB         23.3150   22.6966    0.9423 C.3       4 UNK        -0.2001 
     24 N          24.6947   24.2738   -0.3820 N.am      4 UNK        -0.4303 
     25 C          24.0748   25.4636   -0.3996 C.2       3 UNK         0.5044 
     26 O          23.3908   25.8976    0.5281 O.2       3 UNK        -0.5152 
     27 CA         24.2483   26.3062   -1.6806 C.3       3 UNK         0.0319 
     28 CB         24.0211   27.8092   -1.4312 C.3       3 UNK        -0.2001 
     29 N          25.5739   26.1111   -2.2754 N.am      3 UNK        -0.4354 
     30 C          25.8869   25.1776   -3.1861 C.2       2 UNK         0.4964 
     31 O          25.0603   24.4094   -3.6774 O.2       2 UNK        -0.5047 
     32 CA         27.3644   25.0397   -3.6004 C.3       2 UNK         0.0288 
     33 CB         27.5753   25.5818   -5.0239 C.3       2 UNK        -0.2113 
     34 N          28.3084   25.7024   -2.6971 N.am      2 UNK        -0.4145 
     35 C          28.5921   25.3199   -1.4423 C.2       1 UNK         0.5006 
     36 O          28.0673   24.3580   -0.8745 O.2       1 UNK        -0.5103 
     37 C          27.0067   25.9468    3.6728 C.2       5 UNK         0.5055 
     38 O          27.0547   25.9916    4.9045 O.2       5 UNK        -0.5220 
     39 N          26.4882   26.9345    2.9291 N.am      6 UNK        -0.4450 
     40 CA         25.8637   28.1315    3.4959 C.3       6 UNK         0.0367 
     41 CB         24.9631   28.8032    2.4467 C.3       6 UNK        -0.1929 
     42 C          26.8827   29.1280    4.0723 C.2       6 UNK         0.5070 
     43 O          26.6651   29.6335    5.1739 O.2       6 UNK        -0.5237 
     44 N          27.9675   29.3940    3.3326 N.am      7 UNK        -0.4739 
     45 CA         29.0240   30.3466    3.6815 C.3       7 UNK         0.0276 
     46 CB         28.4790   31.7916    3.6767 C.3       7 UNK        -0.1927 
     47 C          30.1757   30.2320    2.6759 C.2       7 UNK         0.5013 
     48 O          29.9677   29.7528    1.5610 O.2       7 UNK        -0.5193 
     49 N          31.3553   30.7136    3.0752 N.am      8 UNK        -0.4253 
     50 CA         32.5556   30.8834    2.2595 C.3       8 UNK         0.0242 
     51 CB         33.1729   29.5270    1.8666 C.3       8 UNK        -0.2000 
     52 C          33.5493   31.7040    3.0862 C.2       8 UNK         0.4948 
     53 O          33.4276   31.7389    4.3132 O.2       8 UNK        -0.5275 
     54 N          34.5386   32.3124    2.4189 N.am      9 UNK        -0.4246 
     55 CA         35.5854   33.1301    3.0485 C.3       9 UNK         0.0261 
     56 CB         36.4322   33.8030    1.9556 C.3       9 UNK        -0.1959 
     57 C          36.4884   32.3554    4.0287 C.2       9 UNK         0.5033 
     58 O          37.0111   32.9541    4.9695 O.2       9 UNK        -0.5390 
     59 N          36.6477   31.0454    3.7970 N.am      10 UNK        -0.4215 
     60 CA         37.3823   30.1262    4.6682 C.3       10 UNK         0.0240 
     61 CB         37.8461   28.9196    3.8345 C.3       10 UNK        -0.1982 
     62 C          36.5646   29.6490    5.8842 C.2       10 UNK         0.4970 
     63 O          37.1637   29.1455    6.8358 O.2       10 UNK        -0.4916 
     64 N          35.2331   29.7798    5.8303 N.am      11 UNK        -0.4279 
     65 CA         34.3028   29.3459    6.8815 C.3       11 UNK         0.1003 
     66 C          34.0205   30.4733    7.9124 C.2       11 UNK         0.5709 
     67 N          33.4161   30.1347    9.0437 N.am      11 UNK        -0.7358 
     68 O          34.3329   31.6453    7.7087 O.2       11 UNK        -0.4999 
     69 C69        32.9947   28.7735    6.2710 C.3       12 UNK        -0.0954 
     70 S70        33.3060   27.2571    5.3077 S.3       12 UNK        -0.2268 
     71 C71        31.7296   27.0827    4.4228 C.3       12 UNK         0.0203 
     72 H72        27.4326   30.0454    0.4501 H         1 UNK         0.0888 
     73 H73        28.4193   30.0697   -1.0069 H         1 UNK         0.0888 
     74 H74        26.7037   29.6710   -1.1143 H         1 UNK         0.0888 
     75 H75        29.7753   28.3082   -1.0423 H         1 UNK         0.3017 
     76 H76        29.5670   25.9158    0.3708 H         1 UNK         0.0873 
     77 H77        31.6604   26.8212   -0.6239 H         1 UNK         0.0745 
     78 H78        31.0756   26.5174   -2.2305 H         1 UNK         0.0745 
     79 H79        33.5900   25.4974    0.0160 H         1 UNK         0.0705 
     80 H80        33.6372   23.7571    0.1239 H         1 UNK         0.0705 
     81 H81        32.7923   26.6960    1.9372 H         1 UNK         0.1334 
     82 H82        30.6499   24.6670    5.0437 H         1 UNK         0.1417 
     83 H83        31.6429   22.5998    1.4180 H         1 UNK         0.1562 
     84 H84        30.3199   22.2424    4.8793 H         1 UNK         0.0748 
     85 H85        30.9328   21.3661    3.5009 H         1 UNK         0.0748 
     86 H86        28.4745   23.8735    4.7391 H         1 UNK         0.0940 
     87 H87        26.9406   23.1602    4.3857 H         1 UNK         0.0940 
     88 H88        28.4692   25.0028    2.4626 H         1 UNK         0.0703 
     89 H89        27.0575   24.2879    0.9054 H         1 UNK         0.3081 
     90 H90        25.3565   22.4688    0.3450 H         1 UNK         0.0719 
     91 H91        22.6221   23.4449    1.3284 H         1 UNK         0.0809 
     92 H92        22.8900   22.2868    0.0262 H         1 UNK         0.0809 
     93 H93        23.3547   21.8865    1.6715 H         1 UNK         0.0809 
     94 H94        25.2379   24.0340   -1.1996 H         1 UNK         0.2990 
     95 H95        23.4833   25.9721   -2.3845 H         1 UNK         0.0690 
     96 H96        24.1813   28.3927   -2.3378 H         1 UNK         0.0788 
     97 H97        24.6854   28.1956   -0.6590 H         1 UNK         0.0788 
     98 H98        22.9989   27.9996   -1.1018 H         1 UNK         0.0788 
     99 H99        26.3226   26.6414   -1.8502 H         1 UNK         0.2993 
    100 H100       27.5974   23.9725   -3.6009 H         1 UNK         0.0949 
    101 H101       28.5972   25.4149   -5.3653 H         1 UNK         0.0767 
    102 H102       26.9142   25.0832   -5.7345 H         1 UNK         0.0767 
    103 H103       27.3700   26.6515   -5.0835 H         1 UNK         0.0767 
    104 H104       28.7705   26.5240   -3.0588 H         1 UNK         0.3013 
    105 H105       26.5317   26.8760    1.9125 H         1 UNK         0.3121 
    106 H106       25.2185   27.8133    4.3180 H         1 UNK         0.0774 
    107 H107       24.4500   29.6673    2.8706 H         1 UNK         0.0815 
    108 H108       25.5292   29.1528    1.5851 H         1 UNK         0.0815 
    109 H109       24.1974   28.1163    2.0854 H         1 UNK         0.0815 
    110 H110       28.1055   28.9207    2.4483 H         1 UNK         0.2987 
    111 H111       29.4031   30.0965    4.6748 H         1 UNK         0.0949 
    112 H112       28.0387   32.0491    2.7125 H         1 UNK         0.0806 
    113 H113       27.7179   31.9432    4.4416 H         1 UNK         0.0806 
    114 H114       29.2707   32.5149    3.8762 H         1 UNK         0.0806 
    115 H115       31.4580   31.1045    4.0050 H         1 UNK         0.3010 
    116 H116       32.2896   31.4457    1.3620 H         1 UNK         0.0829 
    117 H117       32.4716   28.9183    1.2970 H         1 UNK         0.0813 
    118 H118       34.0531   29.6635    1.2377 H         1 UNK         0.0813 
    119 H119       33.4863   28.9585    2.7423 H         1 UNK         0.0813 
    120 H120       34.5711   32.2319    1.4121 H         1 UNK         0.3038 
    121 H121       35.0872   33.9138    3.6236 H         1 UNK         0.0769 
    122 H122       37.2026   34.4384    2.3951 H         1 UNK         0.0811 
    123 H123       35.8214   34.4375    1.3131 H         1 UNK         0.0811 
    124 H124       36.9363   33.0697    1.3249 H         1 UNK         0.0811 
    125 H125       36.1980   30.6461    2.9864 H         1 UNK         0.3204 
    126 H126       38.2693   30.6365    5.0502 H         1 UNK         0.0748 
    127 H127       38.4323   28.2277    4.4411 H         1 UNK         0.0771 
    128 H128       37.0021   28.3603    3.4279 H         1 UNK         0.0771 
    129 H129       38.4772   29.2307    3.0017 H         1 UNK         0.0771 
    130 H130       34.8141   30.3122    5.0790 H         1 UNK         0.2980 
    131 H131       34.7750   28.5394    7.4462 H         1 UNK         0.0545 
    132 H132       33.1568   29.1790    9.2322 H         1 UNK         0.3459 
    133 H133       33.2215   30.8502    9.7266 H         1 UNK         0.3459 
    134 H134       32.2749   28.5213    7.0515 H         1 UNK         0.0616 
    135 H135       32.5117   29.5144    5.6325 H         1 UNK         0.0616 
    136 H136       30.9090   27.0717    5.1421 H         1 UNK         0.0634 
    137 H137       31.5697   27.9508    3.7863 H         1 UNK         0.0634 
@<TRIPOS>BOND
     1    1    2 1    
     2    1   72 1    
     3    1   73 1    
     4    1   74 1    
     5    2    3 2    
     6    2    4 am   BACKBONE|DICT|INTERRES
     7    4    5 1    
     8    4   75 1    
     9    5    6 1    
    10    5   35 1    
    11    5   76 1    
    12    6    7 1    
    13    6   77 1    
    14    6   78 1    
    15    7    8 1    
    16    8    9 1    
    17    8   79 1    
    18    8   80 1    
    19    9   10 ar   
    20    9   14 ar   
    21   10   11 ar   
    22   10   81 1    
    23   11   12 ar   
    24   11   71 1    
    25   12   13 ar   
    26   12   82 1    
    27   13   14 ar   
    28   13   15 1    
    29   14   83 1    
    30   15   16 1    
    31   15   84 1    
    32   15   85 1    
    33   16   17 1    
    34   17   18 1    
    35   17   86 1    
    36   17   87 1    
    37   18   19 1    
    38   18   37 1    
    39   18   88 1    
    40   19   20 am   BACKBONE|DICT|INTERRES
    41   19   89 1    
    42   20   21 2    
    43   20   22 1    
    44   22   23 1    
    45   22   24 1    
    46   22   90 1    
    47   23   91 1    
    48   23   92 1    
    49   23   93 1    
    50   24   25 am   BACKBONE|DICT|INTERRES
    51   24   94 1    
    52   25   26 2    
    53   25   27 1    
    54   27   28 1    
    55   27   29 1    
    56   27   95 1    
    57   28   96 1    
    58   28   97 1    
    59   28   98 1    
    60   29   30 am   BACKBONE|DICT|INTERRES
    61   29   99 1    
    62   30   31 2    
    63   30   32 1    
    64   32   33 1    
    65   32   34 1    
    66   32  100 1    
    67   33  101 1    
    68   33  102 1    
    69   33  103 1    
    70   34   35 am   BACKBONE|DICT|INTERRES
    71   34  104 1    
    72   35   36 2    
    73   37   38 2    
    74   37   39 am   BACKBONE|DICT|INTERRES
    75   39   40 1    
    76   39  105 1    
    77   40   41 1    
    78   40   42 1    
    79   40  106 1    
    80   41  107 1    
    81   41  108 1    
    82   41  109 1    
    83   42   43 2    
    84   42   44 am   BACKBONE|DICT|INTERRES
    85   44   45 1    
    86   44  110 1    
    87   45   46 1    
    88   45   47 1    
    89   45  111 1    
    90   46  112 1    
    91   46  113 1    
    92   46  114 1    
    93   47   48 2    
    94   47   49 am   BACKBONE|DICT|INTERRES
    95   49   50 1    
    96   49  115 1    
    97   50   51 1    
    98   50   52 1    
    99   50  116 1    
   100   51  117 1    
   101   51  118 1    
   102   51  119 1    
   103   52   53 2    
   104   52   54 am   BACKBONE|DICT|INTERRES
   105   54   55 1    
   106   54  120 1    
   107   55   56 1    
   108   55   57 1    
   109   55  121 1    
   110   56  122 1    
   111   56  123 1    
   112   56  124 1    
   113   57   58 2    
   114   57   59 am   BACKBONE|DICT|INTERRES
   115   59   60 1    
   116   59  125 1    
   117   60   61 1    
   118   60   62 1    
   119   60  126 1    
   120   61  127 1    
   121   61  128 1    
   122   61  129 1    
   123   62   63 2    
   124   62   64 am   BACKBONE|DICT|INTERRES
   125   64   65 1    
   126   64  130 1    
   127   65   66 1    
   128   65   69 1    
   129   65  131 1    
   130   66   67 am   BACKBONE|DICT|INTERRES
   131   66   68 2    
   132   67  132 1    
   133   67  133 1    
   134   69   70 1    
   135   69  134 1    
   136   69  135 1    
   137   70   71 1    
   138   71  136 1    
   139   71  137 1    
@<TRIPOS>SUBSTRUCTURE
     1 UNK         1 GROUP             0       ****    0 ROOT    
