@<TRIPOS>MOLECULE
3R136
137   139    1
SMALL
USER_CHARGES


@<TRIPOS>ATOM
      1 CA         28.4238   21.3288   -2.7012 C.3       0 UNK        -0.1979 
      2 C          29.1579   22.1243   -1.6316 C.2       0 UNK         0.4864 
      3 O          30.0340   22.9224   -1.9655 O.2       0 UNK        -0.5359 
      4 N          28.8037   21.9034   -0.3588 N.am      1 UNK        -0.4318 
      5 CA         29.3240   22.6265    0.8061 C.3       1 UNK         0.0824 
      6 C6         29.6610   21.6610    1.9775 C.3       12 UNK        -0.0944 
      7 S7         31.2440   20.8121    1.6481 S.3       12 UNK        -0.2672 
      8 C8         32.3995   21.6151    2.8179 C.3       12 UNK         0.0333 
      9 C9         32.2469   23.1322    2.8800 C.ar      12 UNK        -0.0807 
     10 C10        31.7965   23.7394    4.0579 C.ar      12 UNK        -0.0894 
     11 C11        31.6086   25.1226    4.1254 C.ar      12 UNK        -0.0804 
     12 C12        31.8748   25.8956    2.9906 C.ar      12 UNK        -0.0824 
     13 C13        32.3263   25.3070    1.8068 C.ar      12 UNK        -0.0762 
     14 C14        32.5283   23.9245    1.7618 C.ar      12 UNK        -0.0782 
     15 C15        32.5862   26.1728    0.5810 C.3       12 UNK         0.0230 
     16 S16        31.0789   26.4345   -0.4135 S.3       12 UNK        -0.2608 
     17 C17        30.0232   27.3468    0.7619 C.3       12 UNK        -0.0989 
     18 CA         28.8349   28.0917    0.1056 C.3       5 UNK         0.0716 
     19 N          27.9578   27.1737   -0.6197 N.am      5 UNK        -0.4135 
     20 C          27.0963   27.4991   -1.5912 C.2       4 UNK         0.5031 
     21 O          26.9456   28.6467   -2.0144 O.2       4 UNK        -0.5229 
     22 CA         26.2466   26.3579   -2.1685 C.3       4 UNK         0.0329 
     23 CB         27.0853   25.4886   -3.1208 C.3       4 UNK        -0.2001 
     24 N          25.7121   25.5206   -1.0937 N.am      4 UNK        -0.4303 
     25 C          24.4536   25.5589   -0.6354 C.2       3 UNK         0.5044 
     26 O          23.5667   26.2633   -1.1193 O.2       3 UNK        -0.5152 
     27 CA         24.1175   24.6565    0.5696 C.3       3 UNK         0.0319 
     28 CB         23.5788   23.2998    0.0880 C.3       3 UNK        -0.2001 
     29 N          25.2557   24.4312    1.4656 N.am      3 UNK        -0.4354 
     30 C          25.8329   25.3802    2.2169 C.2       2 UNK         0.4964 
     31 O          25.3903   26.5239    2.3207 O.2       2 UNK        -0.5047 
     32 CA         27.1308   25.0085    2.9644 C.3       2 UNK         0.0288 
     33 CB         26.8294   24.7184    4.4437 C.3       2 UNK        -0.2113 
     34 N          27.9082   23.8876    2.4104 N.am      2 UNK        -0.4145 
     35 C          28.3559   23.7762    1.1499 C.2       1 UNK         0.5006 
     36 O          28.0295   24.5575    0.2559 O.2       1 UNK        -0.5103 
     37 C          28.0211   28.8790    1.1544 C.2       5 UNK         0.5055 
     38 O          28.1625   28.6360    2.3542 O.2       5 UNK        -0.5220 
     39 N          27.1637   29.7934    0.6818 N.am      6 UNK        -0.4450 
     40 CA         26.2953   30.6326    1.5135 C.3       6 UNK         0.0367 
     41 CB         25.2876   31.3666    0.6147 C.3       6 UNK        -0.1929 
     42 C          27.0651   31.6339    2.3951 C.2       6 UNK         0.5070 
     43 O          26.5838   31.9836    3.4735 O.2       6 UNK        -0.5237 
     44 N          28.2416   32.0743    1.9300 N.am      7 UNK        -0.4739 
     45 CA         29.1683   32.9103    2.6881 C.3       7 UNK         0.0276 
     46 CB         30.0644   33.6918    1.7115 C.3       7 UNK        -0.1927 
     47 C          30.0119   32.0263    3.6169 C.2       7 UNK         0.5013 
     48 O          30.8243   31.2403    3.1255 O.2       7 UNK        -0.5193 
     49 N          29.8393   32.1917    4.9360 N.am      8 UNK        -0.4253 
     50 CA         30.5523   31.4402    5.9797 C.3       8 UNK         0.0242 
     51 CB         29.9989   31.8335    7.3586 C.3       8 UNK        -0.2000 
     52 C          32.0843   31.6029    5.9482 C.2       8 UNK         0.4948 
     53 O          32.7980   30.7111    6.4050 O.2       8 UNK        -0.5275 
     54 N          32.5679   32.7109    5.3692 N.am      9 UNK        -0.4246 
     55 CA         33.9838   32.9773    5.1059 C.3       9 UNK         0.0261 
     56 CB         34.1346   34.4214    4.5997 C.3       9 UNK        -0.1959 
     57 C          34.6377   31.9903    4.1173 C.2       9 UNK         0.5033 
     58 O          35.8644   31.8784    4.1203 O.2       9 UNK        -0.5390 
     59 N          33.8343   31.2968    3.2951 N.am      10 UNK        -0.4215 
     60 CA         34.3068   30.2787    2.3548 C.3       10 UNK         0.0240 
     61 CB         33.2784   30.1212    1.2224 C.3       10 UNK        -0.1982 
     62 C          34.5945   28.9186    3.0193 C.2       10 UNK         0.4970 
     63 O          35.2576   28.0912    2.3927 O.2       10 UNK        -0.4916 
     64 N          34.0907   28.6900    4.2411 N.am      11 UNK        -0.4279 
     65 CA         34.3021   27.4497    5.0028 C.3       11 UNK         0.1003 
     66 C          35.7660   27.2929    5.4962 C.2       11 UNK         0.5709 
     67 N          36.2569   26.0649    5.5982 N.am      11 UNK        -0.7358 
     68 O          36.4451   28.2638    5.8259 O.2       11 UNK        -0.4999 
     69 C69        33.3074   27.3081    6.1857 C.3       12 UNK        -0.0954 
     70 S70        31.5546   27.4767    5.7039 S.3       12 UNK        -0.2268 
     71 C71        31.0648   25.7413    5.4139 C.3       12 UNK         0.0203 
     72 H72        29.1326   20.7436   -3.2864 H         1 UNK         0.0888 
     73 H73        27.6920   20.6443   -2.2724 H         1 UNK         0.0888 
     74 H74        27.9002   22.0055   -3.3760 H         1 UNK         0.0888 
     75 H75        28.0717   21.2354   -0.1644 H         1 UNK         0.3017 
     76 H76        30.2435   23.1407    0.5231 H         1 UNK         0.0873 
     77 H77        29.7456   22.1710    2.9364 H         1 UNK         0.0745 
     78 H78        28.8768   20.9130    2.1067 H         1 UNK         0.0745 
     79 H79        33.4220   21.3694    2.5281 H         1 UNK         0.0705 
     80 H80        32.2504   21.1746    3.8049 H         1 UNK         0.0705 
     81 H81        31.5727   23.1296    4.9228 H         1 UNK         0.1334 
     82 H82        31.7231   26.9645    3.0215 H         1 UNK         0.1417 
     83 H83        32.8695   23.4586    0.8470 H         1 UNK         0.1562 
     84 H84        33.3465   25.7087   -0.0488 H         1 UNK         0.0748 
     85 H85        32.9946   27.1367    0.8845 H         1 UNK         0.0748 
     86 H86        30.6476   28.0626    1.2982 H         1 UNK         0.0940 
     87 H87        29.6583   26.6347    1.5037 H         1 UNK         0.0940 
     88 H88        29.2451   28.8136   -0.6039 H         1 UNK         0.0703 
     89 H89        28.0236   26.1974   -0.3353 H         1 UNK         0.3081 
     90 H90        25.4322   26.8026   -2.7444 H         1 UNK         0.0719 
     91 H91        27.9244   25.0150   -2.6084 H         1 UNK         0.0809 
     92 H92        26.4816   24.7001   -3.5703 H         1 UNK         0.0809 
     93 H93        27.4961   26.0870   -3.9350 H         1 UNK         0.0809 
     94 H94        26.3897   24.9492   -0.5969 H         1 UNK         0.2990 
     95 H95        23.3312   25.1526    1.1428 H         1 UNK         0.0690 
     96 H96        24.3273   22.7456   -0.4800 H         1 UNK         0.0788 
     97 H97        22.7112   23.4331   -0.5601 H         1 UNK         0.0788 
     98 H98        23.2621   22.6778    0.9255 H         1 UNK         0.0788 
     99 H99        25.6735   23.5127    1.4521 H         1 UNK         0.2993 
    100 H100       27.7737   25.8901    2.9197 H         1 UNK         0.0949 
    101 H101       26.2136   23.8258    4.5615 H         1 UNK         0.0767 
    102 H102       26.2916   25.5492    4.9033 H         1 UNK         0.0767 
    103 H103       27.7454   24.5741    5.0168 H         1 UNK         0.0767 
    104 H104       28.2013   23.1894    3.0777 H         1 UNK         0.3013 
    105 H105       27.0577   29.8642   -0.3250 H         1 UNK         0.3121 
    106 H106       25.7388   29.9712    2.1815 H         1 UNK         0.0774 
    107 H107       24.6077   31.9779    1.2099 H         1 UNK         0.0815 
    108 H108       25.7860   32.0290   -0.0942 H         1 UNK         0.0815 
    109 H109       24.6768   30.6641    0.0472 H         1 UNK         0.0815 
    110 H110       28.5777   31.7044    1.0531 H         1 UNK         0.2987 
    111 H111       28.6047   33.6328    3.2831 H         1 UNK         0.0949 
    112 H112       30.6479   33.0275    1.0722 H         1 UNK         0.0806 
    113 H113       29.4734   34.3421    1.0663 H         1 UNK         0.0806 
    114 H114       30.7695   34.3256    2.2509 H         1 UNK         0.0806 
    115 H115       29.1407   32.8491    5.2533 H         1 UNK         0.3010 
    116 H116       30.3422   30.3810    5.8161 H         1 UNK         0.0829 
    117 H117       30.4914   31.2682    8.1514 H         1 UNK         0.0813 
    118 H118       30.1529   32.8925    7.5693 H         1 UNK         0.0813 
    119 H119       28.9312   31.6259    7.4325 H         1 UNK         0.0813 
    120 H120       31.9071   33.3958    5.0330 H         1 UNK         0.3038 
    121 H121       34.5191   32.8870    6.0535 H         1 UNK         0.0769 
    122 H122       35.1832   34.6657    4.4235 H         1 UNK         0.0811 
    123 H123       33.7557   35.1400    5.3268 H         1 UNK         0.0811 
    124 H124       33.6020   34.5781    3.6607 H         1 UNK         0.0811 
    125 H125       32.8275   31.4263    3.3485 H         1 UNK         0.3204 
    126 H126       35.2414   30.6259    1.9091 H         1 UNK         0.0748 
    127 H127       33.6523   29.4539    0.4450 H         1 UNK         0.0771 
    128 H128       32.3398   29.7051    1.5874 H         1 UNK         0.0771 
    129 H129       33.0582   31.0776    0.7478 H         1 UNK         0.0771 
    130 H130       33.5880   29.4226    4.7248 H         1 UNK         0.2980 
    131 H131       34.1170   26.6227    4.3170 H         1 UNK         0.0545 
    132 H132       35.7066   25.2601    5.3416 H         1 UNK         0.3459 
    133 H133       37.2001   25.9410    5.9314 H         1 UNK         0.3459 
    134 H134       33.4420   26.3472    6.6852 H         1 UNK         0.0616 
    135 H135       33.5122   28.0698    6.9402 H         1 UNK         0.0616 
    136 H136       29.9760   25.7027    5.3709 H         1 UNK         0.0634 
    137 H137       31.3605   25.1443    6.2779 H         1 UNK         0.0634 
@<TRIPOS>BOND
     1    1    2 1    
     2    1   72 1    
     3    1   73 1    
     4    1   74 1    
     5    2    3 2    
     6    2    4 am   BACKBONE|DICT|INTERRES
     7    4    5 1    
     8    4   75 1    
     9    5    6 1    
    10    5   35 1    
    11    5   76 1    
    12    6    7 1    
    13    6   77 1    
    14    6   78 1    
    15    7    8 1    
    16    8    9 1    
    17    8   79 1    
    18    8   80 1    
    19    9   10 ar   
    20    9   14 ar   
    21   10   11 ar   
    22   10   81 1    
    23   11   12 ar   
    24   11   71 1    
    25   12   13 ar   
    26   12   82 1    
    27   13   14 ar   
    28   13   15 1    
    29   14   83 1    
    30   15   16 1    
    31   15   84 1    
    32   15   85 1    
    33   16   17 1    
    34   17   18 1    
    35   17   86 1    
    36   17   87 1    
    37   18   19 1    
    38   18   37 1    
    39   18   88 1    
    40   19   20 am   BACKBONE|DICT|INTERRES
    41   19   89 1    
    42   20   21 2    
    43   20   22 1    
    44   22   23 1    
    45   22   24 1    
    46   22   90 1    
    47   23   91 1    
    48   23   92 1    
    49   23   93 1    
    50   24   25 am   BACKBONE|DICT|INTERRES
    51   24   94 1    
    52   25   26 2    
    53   25   27 1    
    54   27   28 1    
    55   27   29 1    
    56   27   95 1    
    57   28   96 1    
    58   28   97 1    
    59   28   98 1    
    60   29   30 am   BACKBONE|DICT|INTERRES
    61   29   99 1    
    62   30   31 2    
    63   30   32 1    
    64   32   33 1    
    65   32   34 1    
    66   32  100 1    
    67   33  101 1    
    68   33  102 1    
    69   33  103 1    
    70   34   35 am   BACKBONE|DICT|INTERRES
    71   34  104 1    
    72   35   36 2    
    73   37   38 2    
    74   37   39 am   BACKBONE|DICT|INTERRES
    75   39   40 1    
    76   39  105 1    
    77   40   41 1    
    78   40   42 1    
    79   40  106 1    
    80   41  107 1    
    81   41  108 1    
    82   41  109 1    
    83   42   43 2    
    84   42   44 am   BACKBONE|DICT|INTERRES
    85   44   45 1    
    86   44  110 1    
    87   45   46 1    
    88   45   47 1    
    89   45  111 1    
    90   46  112 1    
    91   46  113 1    
    92   46  114 1    
    93   47   48 2    
    94   47   49 am   BACKBONE|DICT|INTERRES
    95   49   50 1    
    96   49  115 1    
    97   50   51 1    
    98   50   52 1    
    99   50  116 1    
   100   51  117 1    
   101   51  118 1    
   102   51  119 1    
   103   52   53 2    
   104   52   54 am   BACKBONE|DICT|INTERRES
   105   54   55 1    
   106   54  120 1    
   107   55   56 1    
   108   55   57 1    
   109   55  121 1    
   110   56  122 1    
   111   56  123 1    
   112   56  124 1    
   113   57   58 2    
   114   57   59 am   BACKBONE|DICT|INTERRES
   115   59   60 1    
   116   59  125 1    
   117   60   61 1    
   118   60   62 1    
   119   60  126 1    
   120   61  127 1    
   121   61  128 1    
   122   61  129 1    
   123   62   63 2    
   124   62   64 am   BACKBONE|DICT|INTERRES
   125   64   65 1    
   126   64  130 1    
   127   65   66 1    
   128   65   69 1    
   129   65  131 1    
   130   66   67 am   BACKBONE|DICT|INTERRES
   131   66   68 2    
   132   67  132 1    
   133   67  133 1    
   134   69   70 1    
   135   69  134 1    
   136   69  135 1    
   137   70   71 1    
   138   71  136 1    
   139   71  137 1    
@<TRIPOS>SUBSTRUCTURE
     1 UNK         1 GROUP             0       ****    0 ROOT    
