@<TRIPOS>MOLECULE
3R136
137   139    1
SMALL
USER_CHARGES


@<TRIPOS>ATOM
      1 CA         26.3398   20.4789    4.4634 C.3       0 UNK        -0.1979 
      2 C          26.5675   20.1377    2.9980 C.2       0 UNK         0.4864 
      3 O          25.9729   19.1849    2.4909 O.2       0 UNK        -0.5359 
      4 N          27.4295   20.9037    2.3186 N.am      1 UNK        -0.4318 
      5 CA         27.7073   20.7883    0.8845 C.3       1 UNK         0.0824 
      6 C6         29.0692   21.4304    0.5097 C.3       12 UNK        -0.0944 
      7 S7         29.2647   23.1704    1.0414 S.3       12 UNK        -0.2672 
      8 C8         30.5398   22.9734    2.3243 C.3       12 UNK         0.0333 
      9 C9         30.9183   24.3135    2.9298 C.ar      12 UNK        -0.0807 
     10 C10        32.0338   25.0112    2.4572 C.ar      12 UNK        -0.0894 
     11 C11        32.3851   26.2437    3.0150 C.ar      12 UNK        -0.0804 
     12 C12        31.5981   26.7885    4.0342 C.ar      12 UNK        -0.0824 
     13 C13        30.4748   26.1043    4.5068 C.ar      12 UNK        -0.0762 
     14 C14        30.1524   24.8557    3.9653 C.ar      12 UNK        -0.0782 
     15 C15        29.5879   26.7293    5.5741 C.3       12 UNK         0.0230 
     16 S16        27.8925   27.0132    4.9660 S.3       12 UNK        -0.2608 
     17 C17        28.1637   28.1864    3.5908 C.3       12 UNK        -0.0989 
     18 CA         28.3434   27.4875    2.2126 C.3       5 UNK         0.0716 
     19 N          27.2893   26.5408    1.8351 N.am      5 UNK        -0.4135 
     20 C          25.9707   26.7662    1.7405 C.2       4 UNK         0.5031 
     21 O          25.4023   27.7939    2.1146 O.2       4 UNK        -0.5229 
     22 CA         25.1557   25.6289    1.0911 C.3       4 UNK         0.0329 
     23 CB         23.6902   26.0182    0.8024 C.3       4 UNK        -0.2001 
     24 N          25.7962   25.0967   -0.1199 N.am      4 UNK        -0.4303 
     25 C          26.1363   25.7783   -1.2293 C.2       3 UNK         0.5044 
     26 O          25.9221   26.9793   -1.3935 O.2       3 UNK        -0.5152 
     27 CA         26.8578   25.0049   -2.3507 C.3       3 UNK         0.0319 
     28 CB         28.3617   25.3277   -2.3331 C.3       3 UNK        -0.2001 
     29 N          26.6781   23.5537   -2.2733 N.am      3 UNK        -0.4354 
     30 C          25.5284   22.9092   -2.5234 C.2       2 UNK         0.4964 
     31 O          24.5163   23.4609   -2.9563 O.2       2 UNK        -0.5047 
     32 CA         25.4861   21.3990   -2.2157 C.3       2 UNK         0.0288 
     33 CB         25.6548   20.5834   -3.5083 C.3       2 UNK        -0.2113 
     34 N          26.4776   20.9476   -1.2295 N.am      2 UNK        -0.4145 
     35 C          26.5542   21.3703    0.0416 C.2       1 UNK         0.5006 
     36 O          25.8004   22.2208    0.5240 O.2       1 UNK        -0.5103 
     37 C          28.5694   28.4922    1.0686 C.2       5 UNK         0.5055 
     38 O          27.7990   29.4419    0.9167 O.2       5 UNK        -0.5220 
     39 N          29.6183   28.2460    0.2688 N.am      6 UNK        -0.4450 
     40 CA         29.9686   29.0234   -0.9259 C.3       6 UNK         0.0367 
     41 CB         31.1300   28.3311   -1.6578 C.3       6 UNK        -0.1929 
     42 C          30.3097   30.4999   -0.6479 C.2       6 UNK         0.5070 
     43 O          30.1056   31.3394   -1.5257 O.2       6 UNK        -0.5237 
     44 N          30.8003   30.7935    0.5600 N.am      7 UNK        -0.4739 
     45 CA         31.0609   32.1323    1.0724 C.3       7 UNK         0.0276 
     46 CB         32.4179   32.6444    0.5528 C.3       7 UNK        -0.1927 
     47 C          30.9890   32.1000    2.6052 C.2       7 UNK         0.5013 
     48 O          31.0987   31.0274    3.2079 O.2       7 UNK        -0.5193 
     49 N          30.7921   33.2799    3.2050 N.am      8 UNK        -0.4253 
     50 CA         30.7040   33.4827    4.6531 C.3       8 UNK         0.0242 
     51 CB         30.1690   34.9006    4.9189 C.3       8 UNK        -0.2000 
     52 C          32.0535   33.2758    5.3636 C.2       8 UNK         0.4948 
     53 O          33.1033   33.3344    4.7195 O.2       8 UNK        -0.5275 
     54 N          31.9872   33.0643    6.6877 N.am      9 UNK        -0.4246 
     55 CA         33.1145   32.8737    7.6130 C.3       9 UNK         0.0261 
     56 CB         33.9172   34.1837    7.7687 C.3       9 UNK        -0.1959 
     57 C          33.9972   31.6718    7.2257 C.2       9 UNK         0.5033 
     58 O          35.2145   31.8140    7.0892 O.2       9 UNK        -0.5390 
     59 N          33.3461   30.5172    7.0094 N.am      10 UNK        -0.4215 
     60 CA         33.9305   29.2452    6.5553 C.3       10 UNK         0.0240 
     61 CB         34.7897   28.6131    7.6710 C.3       10 UNK        -0.1982 
     62 C          34.6883   29.3765    5.2168 C.2       10 UNK         0.4970 
     63 O          35.7328   28.7492    5.0336 O.2       10 UNK        -0.4916 
     64 N          34.1466   30.2119    4.3216 N.am      11 UNK        -0.4279 
     65 CA         34.7211   30.6150    3.0299 C.3       11 UNK         0.1003 
     66 C          36.0357   31.4495    3.1294 C.2       11 UNK         0.5709 
     67 N          36.4168   31.9703    4.2908 N.am      11 UNK        -0.7358 
     68 O          36.7142   31.6586    2.1262 O.2       11 UNK        -0.4999 
     69 C69        34.8182   29.4541    1.9943 C.3       12 UNK        -0.0954 
     70 S70        33.2421   28.5620    1.7571 S.3       12 UNK        -0.2268 
     71 C71        33.6348   26.9728    2.5496 C.3       12 UNK         0.0203 
     72 H72        26.6008   19.6281    5.0921 H         1 UNK         0.0888 
     73 H73        26.9391   21.3320    4.7815 H         1 UNK         0.0888 
     74 H74        25.2907   20.7200    4.6330 H         1 UNK         0.0888 
     75 H75        27.8526   21.7008    2.7705 H         1 UNK         0.3017 
     76 H76        27.7694   19.7239    0.6460 H         1 UNK         0.0873 
     77 H77        29.2393   21.3826   -0.5675 H         1 UNK         0.0745 
     78 H78        29.8712   20.8317    0.9444 H         1 UNK         0.0745 
     79 H79        31.4197   22.4956    1.8903 H         1 UNK         0.0705 
     80 H80        30.1764   22.3020    3.1038 H         1 UNK         0.0705 
     81 H81        32.6340   24.5883    1.6629 H         1 UNK         0.1334 
     82 H82        31.8569   27.7541    4.4457 H         1 UNK         0.1417 
     83 H83        29.2816   24.3250    4.3261 H         1 UNK         0.1562 
     84 H84        30.0034   27.6739    5.9287 H         1 UNK         0.0748 
     85 H85        29.5483   26.0654    6.4387 H         1 UNK         0.0748 
     86 H86        29.0359   28.8035    3.8170 H         1 UNK         0.0940 
     87 H87        27.3164   28.8737    3.5659 H         1 UNK         0.0940 
     88 H88        29.2468   26.8839    2.2730 H         1 UNK         0.0703 
     89 H89        27.6247   25.6496    1.4988 H         1 UNK         0.3081 
     90 H90        25.1422   24.8115    1.8138 H         1 UNK         0.0719 
     91 H91        23.6234   26.8615    0.1143 H         1 UNK         0.0809 
     92 H92        23.1383   25.1852    0.3671 H         1 UNK         0.0809 
     93 H93        23.1742   26.3049    1.7196 H         1 UNK         0.0809 
     94 H94        25.9872   24.0994   -0.0907 H         1 UNK         0.2990 
     95 H95        26.4455   25.3481   -3.3021 H         1 UNK         0.0690 
     96 H96        28.8826   24.8447   -3.1600 H         1 UNK         0.0788 
     97 H97        28.8350   25.0085   -1.4040 H         1 UNK         0.0788 
     98 H98        28.5292   26.4013   -2.4304 H         1 UNK         0.0788 
     99 H99        27.4641   23.0172   -1.9374 H         1 UNK         0.2993 
    100 H100       24.4970   21.1879   -1.8033 H         1 UNK         0.0949 
    101 H101       25.5249   19.5165   -3.3253 H         1 UNK         0.0767 
    102 H102       24.9125   20.8738   -4.2535 H         1 UNK         0.0767 
    103 H103       26.6392   20.7321   -3.9541 H         1 UNK         0.0767 
    104 H104       27.1398   20.2554   -1.5505 H         1 UNK         0.3013 
    105 H105       30.2150   27.4580    0.4773 H         1 UNK         0.3121 
    106 H106       29.0973   29.0136   -1.5845 H         1 UNK         0.0774 
    107 H107       31.3838   28.8639   -2.5753 H         1 UNK         0.0815 
    108 H108       32.0307   28.2963   -1.0441 H         1 UNK         0.0815 
    109 H109       30.8749   27.3095   -1.9391 H         1 UNK         0.0815 
    110 H110       30.9255   30.0560    1.2436 H         1 UNK         0.2987 
    111 H111       30.2698   32.8016    0.7262 H         1 UNK         0.0949 
    112 H112       32.7521   33.5292    1.0962 H         1 UNK         0.0806 
    113 H113       33.1966   31.8878    0.6373 H         1 UNK         0.0806 
    114 H114       32.3504   32.9200   -0.4997 H         1 UNK         0.0806 
    115 H115       30.7516   34.1120    2.6349 H         1 UNK         0.3010 
    116 H116       29.9922   32.7563    5.0517 H         1 UNK         0.0829 
    117 H117       29.1963   35.0529    4.4506 H         1 UNK         0.0813 
    118 H118       30.0413   35.0828    5.9868 H         1 UNK         0.0813 
    119 H119       30.8482   35.6651    4.5389 H         1 UNK         0.0813 
    120 H120       31.0710   33.0389    7.1150 H         1 UNK         0.3038 
    121 H121       32.6843   32.6361    8.5873 H         1 UNK         0.0769 
    122 H122       34.6956   34.0768    8.5252 H         1 UNK         0.0811 
    123 H123       33.2754   35.0082    8.0790 H         1 UNK         0.0811 
    124 H124       34.4075   34.4725    6.8383 H         1 UNK         0.0811 
    125 H125       32.3428   30.5180    7.1332 H         1 UNK         0.3204 
    126 H126       33.0943   28.5713    6.3654 H         1 UNK         0.0748 
    127 H127       35.1261   27.6147    7.3886 H         1 UNK         0.0771 
    128 H128       35.6788   29.2083    7.8826 H         1 UNK         0.0771 
    129 H129       34.2252   28.5125    8.5979 H         1 UNK         0.0771 
    130 H130       33.2929   30.6943    4.5645 H         1 UNK         0.2980 
    131 H131       33.9966   31.3276    2.6426 H         1 UNK         0.0545 
    132 H132       37.2622   32.5159    4.3288 H         1 UNK         0.3459 
    133 H133       35.8702   31.8319    5.1336 H         1 UNK         0.3459 
    134 H134       35.1065   29.8469    1.0180 H         1 UNK         0.0616 
    135 H135       35.6052   28.7532    2.2763 H         1 UNK         0.0616 
    136 H136       34.2088   26.3641    1.8494 H         1 UNK         0.0634 
    137 H137       34.2778   27.1316    3.4143 H         1 UNK         0.0634 
@<TRIPOS>BOND
     1    1    2 1    
     2    1   72 1    
     3    1   73 1    
     4    1   74 1    
     5    2    3 2    
     6    2    4 am   BACKBONE|DICT|INTERRES
     7    4    5 1    
     8    4   75 1    
     9    5    6 1    
    10    5   35 1    
    11    5   76 1    
    12    6    7 1    
    13    6   77 1    
    14    6   78 1    
    15    7    8 1    
    16    8    9 1    
    17    8   79 1    
    18    8   80 1    
    19    9   10 ar   
    20    9   14 ar   
    21   10   11 ar   
    22   10   81 1    
    23   11   12 ar   
    24   11   71 1    
    25   12   13 ar   
    26   12   82 1    
    27   13   14 ar   
    28   13   15 1    
    29   14   83 1    
    30   15   16 1    
    31   15   84 1    
    32   15   85 1    
    33   16   17 1    
    34   17   18 1    
    35   17   86 1    
    36   17   87 1    
    37   18   19 1    
    38   18   37 1    
    39   18   88 1    
    40   19   20 am   BACKBONE|DICT|INTERRES
    41   19   89 1    
    42   20   21 2    
    43   20   22 1    
    44   22   23 1    
    45   22   24 1    
    46   22   90 1    
    47   23   91 1    
    48   23   92 1    
    49   23   93 1    
    50   24   25 am   BACKBONE|DICT|INTERRES
    51   24   94 1    
    52   25   26 2    
    53   25   27 1    
    54   27   28 1    
    55   27   29 1    
    56   27   95 1    
    57   28   96 1    
    58   28   97 1    
    59   28   98 1    
    60   29   30 am   BACKBONE|DICT|INTERRES
    61   29   99 1    
    62   30   31 2    
    63   30   32 1    
    64   32   33 1    
    65   32   34 1    
    66   32  100 1    
    67   33  101 1    
    68   33  102 1    
    69   33  103 1    
    70   34   35 am   BACKBONE|DICT|INTERRES
    71   34  104 1    
    72   35   36 2    
    73   37   38 2    
    74   37   39 am   BACKBONE|DICT|INTERRES
    75   39   40 1    
    76   39  105 1    
    77   40   41 1    
    78   40   42 1    
    79   40  106 1    
    80   41  107 1    
    81   41  108 1    
    82   41  109 1    
    83   42   43 2    
    84   42   44 am   BACKBONE|DICT|INTERRES
    85   44   45 1    
    86   44  110 1    
    87   45   46 1    
    88   45   47 1    
    89   45  111 1    
    90   46  112 1    
    91   46  113 1    
    92   46  114 1    
    93   47   48 2    
    94   47   49 am   BACKBONE|DICT|INTERRES
    95   49   50 1    
    96   49  115 1    
    97   50   51 1    
    98   50   52 1    
    99   50  116 1    
   100   51  117 1    
   101   51  118 1    
   102   51  119 1    
   103   52   53 2    
   104   52   54 am   BACKBONE|DICT|INTERRES
   105   54   55 1    
   106   54  120 1    
   107   55   56 1    
   108   55   57 1    
   109   55  121 1    
   110   56  122 1    
   111   56  123 1    
   112   56  124 1    
   113   57   58 2    
   114   57   59 am   BACKBONE|DICT|INTERRES
   115   59   60 1    
   116   59  125 1    
   117   60   61 1    
   118   60   62 1    
   119   60  126 1    
   120   61  127 1    
   121   61  128 1    
   122   61  129 1    
   123   62   63 2    
   124   62   64 am   BACKBONE|DICT|INTERRES
   125   64   65 1    
   126   64  130 1    
   127   65   66 1    
   128   65   69 1    
   129   65  131 1    
   130   66   67 am   BACKBONE|DICT|INTERRES
   131   66   68 2    
   132   67  132 1    
   133   67  133 1    
   134   69   70 1    
   135   69  134 1    
   136   69  135 1    
   137   70   71 1    
   138   71  136 1    
   139   71  137 1    
@<TRIPOS>SUBSTRUCTURE
     1 UNK         1 GROUP             0       ****    0 ROOT    
