@<TRIPOS>MOLECULE
3R136
137   139    1
SMALL
USER_CHARGES


@<TRIPOS>ATOM
      1 CA         29.8848   25.5553    4.0273 C.3       0 UNK        -0.1979 
      2 C          28.8210   24.5090    3.7330 C.2       0 UNK         0.4864 
      3 O          27.7101   24.6040    4.2562 O.2       0 UNK        -0.5359 
      4 N          29.1339   23.5156    2.8905 N.am      1 UNK        -0.4318 
      5 CA         28.2371   22.4137    2.5091 C.3       1 UNK         0.0824 
      6 C6         29.0129   21.1460    2.0548 C.3       12 UNK        -0.0944 
      7 S7         30.3225   20.6253    3.2152 S.3       12 UNK        -0.2672 
      8 C8         31.8180   20.8319    2.1929 C.3       12 UNK         0.0333 
      9 C9         32.1602   22.2981    1.9632 C.ar      12 UNK        -0.0807 
     10 C10        32.9004   22.9984    2.9191 C.ar      12 UNK        -0.0894 
     11 C11        33.2398   24.3365    2.7080 C.ar      12 UNK        -0.0804 
     12 C12        32.8382   24.9727    1.5310 C.ar      12 UNK        -0.0824 
     13 C13        32.0617   24.2990    0.5789 C.ar      12 UNK        -0.0762 
     14 C14        31.7480   22.9533    0.7972 C.ar      12 UNK        -0.0782 
     15 C15        31.5432   24.9717   -0.6967 C.3       12 UNK         0.0230 
     16 S16        31.5632   26.8006   -0.7053 S.3       12 UNK        -0.2608 
     17 C17        30.5094   27.1873    0.7304 C.3       12 UNK        -0.0989 
     18 CA         29.7209   28.5025    0.5472 C.3       5 UNK         0.0716 
     19 N          28.7139   28.4225   -0.5134 N.am      5 UNK        -0.4135 
     20 C          28.2078   29.4808   -1.1639 C.2       4 UNK         0.5031 
     21 O          28.6553   30.6225   -1.0412 O.2       4 UNK        -0.5229 
     22 CA         26.9719   29.2609   -2.0664 C.3       4 UNK         0.0329 
     23 CB         27.1068   29.9821   -3.4248 C.3       4 UNK        -0.2001 
     24 N          26.5761   27.8556   -2.2420 N.am      4 UNK        -0.4303 
     25 C          27.2605   26.8824   -2.8612 C.2       3 UNK         0.5044 
     26 O          28.3179   27.0673   -3.4651 O.2       3 UNK        -0.5152 
     27 CA         26.6785   25.4555   -2.7542 C.3       3 UNK         0.0319 
     28 CB         27.7561   24.3732   -2.9758 C.3       3 UNK        -0.2001 
     29 N          25.9458   25.1609   -1.5102 N.am      3 UNK        -0.4354 
     30 C          26.3740   25.3250   -0.2479 C.2       2 UNK         0.4964 
     31 O          27.3833   25.9622    0.0603 O.2       2 UNK        -0.5047 
     32 CA         25.5483   24.6737    0.8799 C.3       2 UNK         0.0288 
     33 CB         24.3590   23.8109    0.3972 C.3       2 UNK        -0.2113 
     34 N          26.4291   23.9113    1.7737 N.am      2 UNK        -0.4145 
     35 C          27.2176   22.8767    1.4413 C.2       1 UNK         0.5006 
     36 O          27.1899   22.3244    0.3388 O.2       1 UNK        -0.5103 
     37 C          29.0592   28.9076    1.8754 C.2       5 UNK         0.5055 
     38 O          29.6669   29.6450    2.6532 O.2       5 UNK        -0.5220 
     39 N          27.8316   28.4245    2.1081 N.am      6 UNK        -0.4450 
     40 CA         26.9373   28.9053    3.1590 C.3       6 UNK         0.0367 
     41 CB         25.9610   27.7800    3.5347 C.3       6 UNK        -0.1929 
     42 C          26.1563   30.1298    2.6395 C.2       6 UNK         0.5070 
     43 O          25.9019   30.2042    1.4372 O.2       6 UNK        -0.5237 
     44 N          25.7354   31.0733    3.4928 N.am      7 UNK        -0.4739 
     45 CA         25.9487   31.1515    4.9445 C.3       7 UNK         0.0276 
     46 CB         24.7632   31.9122    5.5639 C.3       7 UNK        -0.1927 
     47 C          27.2817   31.8229    5.3331 C.2       7 UNK         0.5013 
     48 O          27.5509   31.9652    6.5259 O.2       7 UNK        -0.5193 
     49 N          28.0794   32.2366    4.3370 N.am      8 UNK        -0.4253 
     50 CA         29.3532   32.9457    4.4988 C.3       8 UNK         0.0242 
     51 CB         29.8697   33.3673    3.1128 C.3       8 UNK        -0.2000 
     52 C          30.4409   32.1547    5.2487 C.2       8 UNK         0.4948 
     53 O          31.2712   32.7765    5.9124 O.2       8 UNK        -0.5275 
     54 N          30.4192   30.8194    5.1129 N.am      9 UNK        -0.4246 
     55 CA         31.4047   29.8503    5.6047 C.3       9 UNK         0.0261 
     56 CB         31.4963   29.8567    7.1456 C.3       9 UNK        -0.1959 
     57 C          32.7577   30.0637    4.9065 C.2       9 UNK         0.5033 
     58 O          33.7596   30.3617    5.5595 O.2       9 UNK        -0.5390 
     59 N          32.7356   29.9285    3.5720 N.am      10 UNK        -0.4215 
     60 CA         33.8209   30.2441    2.6313 C.3       10 UNK         0.0240 
     61 CB         33.3675   29.8722    1.2103 C.3       10 UNK        -0.1982 
     62 C          35.2071   29.6325    2.9248 C.2       10 UNK         0.4970 
     63 O          36.2049   30.1909    2.4661 O.2       10 UNK        -0.4916 
     64 N          35.2600   28.5246    3.6754 N.am      11 UNK        -0.4279 
     65 CA         36.5083   27.9234    4.1764 C.3       11 UNK         0.1003 
     66 C          37.2062   28.7430    5.3028 C.2       11 UNK         0.5709 
     67 N          36.5479   29.7021    5.9440 N.am      11 UNK        -0.7358 
     68 O          38.3761   28.5058    5.5950 O.2       11 UNK        -0.4999 
     69 C69        36.3124   26.4492    4.6178 C.3       12 UNK        -0.0954 
     70 S70        35.7359   25.3759    3.2623 S.3       12 UNK        -0.2268 
     71 C71        34.0100   25.1136    3.7618 C.3       12 UNK         0.0203 
     72 H72        30.7292   25.4734    3.3472 H         1 UNK         0.0888 
     73 H73        29.4656   26.5562    3.9297 H         1 UNK         0.0888 
     74 H74        30.2536   25.4378    5.0458 H         1 UNK         0.0888 
     75 H75        30.0624   23.4707    2.4926 H         1 UNK         0.3017 
     76 H76        27.6576   22.1307    3.3908 H         1 UNK         0.0873 
     77 H77        29.4474   21.2876    1.0653 H         1 UNK         0.0745 
     78 H78        28.3193   20.3097    1.9489 H         1 UNK         0.0745 
     79 H79        32.6526   20.3380    2.6929 H         1 UNK         0.0705 
     80 H80        31.6887   20.3120    1.2422 H         1 UNK         0.0705 
     81 H81        33.2110   22.4996    3.8274 H         1 UNK         0.1334 
     82 H82        33.1287   26.0016    1.3759 H         1 UNK         0.1417 
     83 H83        31.1768   22.4151    0.0529 H         1 UNK         0.1562 
     84 H84        30.5181   24.6482   -0.8825 H         1 UNK         0.0748 
     85 H85        32.1369   24.6186   -1.5407 H         1 UNK         0.0748 
     86 H86        31.1603   27.2611    1.6029 H         1 UNK         0.0940 
     87 H87        29.8340   26.3518    0.9234 H         1 UNK         0.0940 
     88 H88        30.4320   29.2897    0.2898 H         1 UNK         0.0703 
     89 H89        28.2882   27.5107   -0.6496 H         1 UNK         0.3081 
     90 H90        26.1427   29.7295   -1.5339 H         1 UNK         0.0719 
     91 H91        27.9705   29.6300   -3.9892 H         1 UNK         0.0809 
     92 H92        26.2198   29.8379   -4.0415 H         1 UNK         0.0809 
     93 H93        27.2307   31.0567   -3.2857 H         1 UNK         0.0809 
     94 H94        25.7229   27.5862   -1.7719 H         1 UNK         0.2990 
     95 H95        25.9528   25.3696   -3.5642 H         1 UNK         0.0690 
     96 H96        27.3264   23.3720   -2.9403 H         1 UNK         0.0788 
     97 H97        28.5360   24.4266   -2.2162 H         1 UNK         0.0788 
     98 H98        28.2368   24.4827   -3.9488 H         1 UNK         0.0788 
     99 H99        25.0805   24.6535   -1.6345 H         1 UNK         0.2993 
    100 H100       25.1414   25.4932    1.4719 H         1 UNK         0.0949 
    101 H101       24.6751   22.9905   -0.2483 H         1 UNK         0.0767 
    102 H102       23.8287   23.3738    1.2435 H         1 UNK         0.0767 
    103 H103       23.6326   24.4095   -0.1539 H         1 UNK         0.0767 
    104 H104       26.5876   24.3134    2.6943 H         1 UNK         0.3013 
    105 H105       27.4160   27.8313    1.4023 H         1 UNK         0.3121 
    106 H106       27.5346   29.1667    4.0331 H         1 UNK         0.0774 
    107 H107       25.3087   28.0795    4.3553 H         1 UNK         0.0815 
    108 H108       25.3183   27.5091    2.6970 H         1 UNK         0.0815 
    109 H109       26.4915   26.8856    3.8568 H         1 UNK         0.0815 
    110 H110       25.2133   31.8439    3.0998 H         1 UNK         0.2987 
    111 H111       25.9518   30.1506    5.3781 H         1 UNK         0.0949 
    112 H112       24.7098   32.9408    5.2048 H         1 UNK         0.0806 
    113 H113       23.8151   31.4261    5.3328 H         1 UNK         0.0806 
    114 H114       24.8447   31.9515    6.6512 H         1 UNK         0.0806 
    115 H115       27.7656   32.0852    3.3894 H         1 UNK         0.3010 
    116 H116       29.1523   33.8486    5.0794 H         1 UNK         0.0829 
    117 H117       29.1595   34.0195    2.6042 H         1 UNK         0.0813 
    118 H118       30.8086   33.9168    3.1959 H         1 UNK         0.0813 
    119 H119       30.0540   32.5041    2.4712 H         1 UNK         0.0813 
    120 H120       29.7588   30.4452    4.4381 H         1 UNK         0.3038 
    121 H121       31.0463   28.8645    5.3037 H         1 UNK         0.0769 
    122 H122       31.8972   30.7948    7.5301 H         1 UNK         0.0811 
    123 H123       32.1523   29.0595    7.4969 H         1 UNK         0.0811 
    124 H124       30.5185   29.6991    7.6006 H         1 UNK         0.0811 
    125 H125       31.8364   29.7233    3.1525 H         1 UNK         0.3204 
    126 H126       33.9514   31.3274    2.6686 H         1 UNK         0.0748 
    127 H127       34.1346   30.1195    0.4748 H         1 UNK         0.0771 
    128 H128       32.4670   30.4165    0.9260 H         1 UNK         0.0771 
    129 H129       33.1639   28.8050    1.1195 H         1 UNK         0.0771 
    130 H130       34.4005   28.1429    4.0353 H         1 UNK         0.2980 
    131 H131       37.2146   27.9144    3.3438 H         1 UNK         0.0545 
    132 H132       35.5747   29.9082    5.7297 H         1 UNK         0.3459 
    133 H133       37.0195   30.2226    6.6658 H         1 UNK         0.3459 
    134 H134       35.6220   26.3893    5.4612 H         1 UNK         0.0616 
    135 H135       37.2560   26.0299    4.9720 H         1 UNK         0.0616 
    136 H136       33.5248   26.0769    3.9238 H         1 UNK         0.0634 
    137 H137       33.9887   24.5901    4.7190 H         1 UNK         0.0634 
@<TRIPOS>BOND
     1    1    2 1    
     2    1   72 1    
     3    1   73 1    
     4    1   74 1    
     5    2    3 2    
     6    2    4 am   BACKBONE|DICT|INTERRES
     7    4    5 1    
     8    4   75 1    
     9    5    6 1    
    10    5   35 1    
    11    5   76 1    
    12    6    7 1    
    13    6   77 1    
    14    6   78 1    
    15    7    8 1    
    16    8    9 1    
    17    8   79 1    
    18    8   80 1    
    19    9   10 ar   
    20    9   14 ar   
    21   10   11 ar   
    22   10   81 1    
    23   11   12 ar   
    24   11   71 1    
    25   12   13 ar   
    26   12   82 1    
    27   13   14 ar   
    28   13   15 1    
    29   14   83 1    
    30   15   16 1    
    31   15   84 1    
    32   15   85 1    
    33   16   17 1    
    34   17   18 1    
    35   17   86 1    
    36   17   87 1    
    37   18   19 1    
    38   18   37 1    
    39   18   88 1    
    40   19   20 am   BACKBONE|DICT|INTERRES
    41   19   89 1    
    42   20   21 2    
    43   20   22 1    
    44   22   23 1    
    45   22   24 1    
    46   22   90 1    
    47   23   91 1    
    48   23   92 1    
    49   23   93 1    
    50   24   25 am   BACKBONE|DICT|INTERRES
    51   24   94 1    
    52   25   26 2    
    53   25   27 1    
    54   27   28 1    
    55   27   29 1    
    56   27   95 1    
    57   28   96 1    
    58   28   97 1    
    59   28   98 1    
    60   29   30 am   BACKBONE|DICT|INTERRES
    61   29   99 1    
    62   30   31 2    
    63   30   32 1    
    64   32   33 1    
    65   32   34 1    
    66   32  100 1    
    67   33  101 1    
    68   33  102 1    
    69   33  103 1    
    70   34   35 am   BACKBONE|DICT|INTERRES
    71   34  104 1    
    72   35   36 2    
    73   37   38 2    
    74   37   39 am   BACKBONE|DICT|INTERRES
    75   39   40 1    
    76   39  105 1    
    77   40   41 1    
    78   40   42 1    
    79   40  106 1    
    80   41  107 1    
    81   41  108 1    
    82   41  109 1    
    83   42   43 2    
    84   42   44 am   BACKBONE|DICT|INTERRES
    85   44   45 1    
    86   44  110 1    
    87   45   46 1    
    88   45   47 1    
    89   45  111 1    
    90   46  112 1    
    91   46  113 1    
    92   46  114 1    
    93   47   48 2    
    94   47   49 am   BACKBONE|DICT|INTERRES
    95   49   50 1    
    96   49  115 1    
    97   50   51 1    
    98   50   52 1    
    99   50  116 1    
   100   51  117 1    
   101   51  118 1    
   102   51  119 1    
   103   52   53 2    
   104   52   54 am   BACKBONE|DICT|INTERRES
   105   54   55 1    
   106   54  120 1    
   107   55   56 1    
   108   55   57 1    
   109   55  121 1    
   110   56  122 1    
   111   56  123 1    
   112   56  124 1    
   113   57   58 2    
   114   57   59 am   BACKBONE|DICT|INTERRES
   115   59   60 1    
   116   59  125 1    
   117   60   61 1    
   118   60   62 1    
   119   60  126 1    
   120   61  127 1    
   121   61  128 1    
   122   61  129 1    
   123   62   63 2    
   124   62   64 am   BACKBONE|DICT|INTERRES
   125   64   65 1    
   126   64  130 1    
   127   65   66 1    
   128   65   69 1    
   129   65  131 1    
   130   66   67 am   BACKBONE|DICT|INTERRES
   131   66   68 2    
   132   67  132 1    
   133   67  133 1    
   134   69   70 1    
   135   69  134 1    
   136   69  135 1    
   137   70   71 1    
   138   71  136 1    
   139   71  137 1    
@<TRIPOS>SUBSTRUCTURE
     1 UNK         1 GROUP             0       ****    0 ROOT    
