@<TRIPOS>MOLECULE
3R136
137   139    1
SMALL
USER_CHARGES


@<TRIPOS>ATOM
      1 CA         28.0305   20.8228    2.0757 C.3       0 UNK        -0.1979 
      2 C          28.4852   21.3222    0.7127 C.2       0 UNK         0.4864 
      3 O          28.4114   20.5805   -0.2687 O.2       0 UNK        -0.5359 
      4 N          28.9655   22.5700    0.6492 N.am      1 UNK        -0.4318 
      5 CA         29.4060   23.2309   -0.5836 C.3       1 UNK         0.0824 
      6 C6         30.3306   24.4380   -0.2876 C.3       12 UNK        -0.0944 
      7 S7         31.9418   23.8871    0.3640 S.3       12 UNK        -0.2672 
      8 C8         32.4637   25.3335    1.3494 C.3       12 UNK         0.0333 
      9 C9         31.8247   25.4837    2.7330 C.ar      12 UNK        -0.0807 
     10 C10        32.1477   26.6174    3.4848 C.ar      12 UNK        -0.0894 
     11 C11        31.6290   26.8032    4.7696 C.ar      12 UNK        -0.0804 
     12 C12        30.7530   25.8532    5.3002 C.ar      12 UNK        -0.0824 
     13 C13        30.4091   24.7188    4.5596 C.ar      12 UNK        -0.0762 
     14 C14        30.9577   24.5324    3.2875 C.ar      12 UNK        -0.0782 
     15 C15        29.4420   23.6907    5.1270 C.3       12 UNK         0.0230 
     16 S16        27.7859   23.8544    4.3861 S.3       12 UNK        -0.2608 
     17 C17        27.2417   25.4640    5.0525 C.3       12 UNK        -0.0989 
     18 CA         27.4232   26.6138    4.0320 C.3       5 UNK         0.0716 
     19 N          26.6413   26.3956    2.8130 N.am      5 UNK        -0.4135 
     20 C          26.7280   27.1400    1.7045 C.2       4 UNK         0.5031 
     21 O          27.5031   28.0906    1.5808 O.2       4 UNK        -0.5229 
     22 CA         25.7736   26.7465    0.5672 C.3       4 UNK         0.0329 
     23 CB         24.4223   27.4823    0.6683 C.3       4 UNK        -0.2001 
     24 N          26.3933   26.8725   -0.7564 N.am      4 UNK        -0.4303 
     25 C          26.6333   27.9670   -1.4975 C.2       3 UNK         0.5044 
     26 O          26.2765   29.1054   -1.1943 O.2       3 UNK        -0.5152 
     27 CA         27.3940   27.7697   -2.8287 C.3       3 UNK         0.0319 
     28 CB         28.7101   28.5666   -2.8451 C.3       3 UNK        -0.2001 
     29 N          27.6952   26.3694   -3.1406 N.am      3 UNK        -0.4354 
     30 C          26.8213   25.4784   -3.6289 C.2       2 UNK         0.4964 
     31 O          25.6702   25.7593   -3.9626 O.2       2 UNK        -0.5047 
     32 CA         27.3031   24.0184   -3.7298 C.3       2 UNK         0.0288 
     33 CB         27.8104   23.7177   -5.1497 C.3       2 UNK        -0.2113 
     34 N          28.3436   23.6539   -2.7565 N.am      2 UNK        -0.4145 
     35 C          28.1896   23.6646   -1.4235 C.2       1 UNK         0.5006 
     36 O          27.1589   24.0401   -0.8597 O.2       1 UNK        -0.5103 
     37 C          27.0663   27.9673    4.6738 C.2       5 UNK         0.5055 
     38 O          25.8913   28.3407    4.6913 O.2       5 UNK        -0.5220 
     39 N          28.0890   28.6797    5.1645 N.am      6 UNK        -0.4450 
     40 CA         28.0629   30.0218    5.7689 C.3       6 UNK         0.0367 
     41 CB         27.1130   30.0948    6.9813 C.3       6 UNK        -0.1929 
     42 C          27.7993   31.1688    4.7732 C.2       6 UNK         0.5070 
     43 O          28.2637   32.2824    5.0199 O.2       6 UNK        -0.5237 
     44 N          27.1066   30.8937    3.6589 N.am      7 UNK        -0.4739 
     45 CA         27.0489   31.7684    2.4856 C.3       7 UNK         0.0276 
     46 CB         25.9031   31.3325    1.5611 C.3       7 UNK        -0.1927 
     47 C          28.4005   31.7648    1.7518 C.2       7 UNK         0.5013 
     48 O          28.9206   32.8341    1.4297 O.2       7 UNK        -0.5193 
     49 N          28.9762   30.5674    1.5699 N.am      8 UNK        -0.4253 
     50 CA         30.3883   30.3689    1.2541 C.3       8 UNK         0.0242 
     51 CB         30.6090   28.9096    0.8229 C.3       8 UNK        -0.2000 
     52 C          31.2399   30.6881    2.4928 C.2       8 UNK         0.4948 
     53 O          30.9272   30.1995    3.5796 O.2       8 UNK        -0.5275 
     54 N          32.3066   31.4739    2.3063 N.am      9 UNK        -0.4246 
     55 CA         33.2283   31.8851    3.3729 C.3       9 UNK         0.0261 
     56 CB         33.6782   33.3313    3.1023 C.3       9 UNK        -0.1959 
     57 C          34.4527   30.9602    3.5098 C.2       9 UNK         0.5033 
     58 O          35.2608   31.1692    4.4158 O.2       9 UNK        -0.5390 
     59 N          34.5867   29.9726    2.6112 N.am      10 UNK        -0.4215 
     60 CA         35.7614   29.1084    2.4336 C.3       10 UNK         0.0240 
     61 CB         35.5061   28.1556    1.2536 C.3       10 UNK        -0.1982 
     62 C          36.2176   28.3152    3.6734 C.2       10 UNK         0.4970 
     63 O          37.3954   27.9627    3.7491 O.2       10 UNK        -0.4916 
     64 N          35.3007   28.0516    4.6123 N.am      11 UNK        -0.4279 
     65 CA         35.5951   27.4131    5.9026 C.3       11 UNK         0.1003 
     66 C          36.2427   28.3550    6.9619 C.2       11 UNK         0.5709 
     67 N          36.3350   29.6610    6.7331 N.am      11 UNK        -0.7358 
     68 O          36.6888   27.8855    8.0062 O.2       11 UNK        -0.4999 
     69 C69        34.3725   26.6236    6.4427 C.3       12 UNK        -0.0954 
     70 S70        32.9851   27.6363    7.0732 S.3       12 UNK        -0.2268 
     71 C71        32.0198   28.0315    5.5801 C.3       12 UNK         0.0203 
     72 H72        28.5550   21.3332    2.8828 H         1 UNK         0.0888 
     73 H73        26.9606   20.9882    2.2000 H         1 UNK         0.0888 
     74 H74        28.2260   19.7553    2.1748 H         1 UNK         0.0888 
     75 H75        28.9426   23.1507    1.4737 H         1 UNK         0.3017 
     76 H76        29.9692   22.5037   -1.1736 H         1 UNK         0.0873 
     77 H77        30.5303   25.0138   -1.1935 H         1 UNK         0.0745 
     78 H78        29.8582   25.1266    0.4167 H         1 UNK         0.0745 
     79 H79        33.5438   25.2636    1.4844 H         1 UNK         0.0705 
     80 H80        32.2844   26.2372    0.7653 H         1 UNK         0.0705 
     81 H81        32.8170   27.3559    3.0679 H         1 UNK         0.1334 
     82 H82        30.3474   25.9960    6.2926 H         1 UNK         0.1417 
     83 H83        30.6992   23.6390    2.7401 H         1 UNK         0.1562 
     84 H84        29.3696   23.7781    6.2123 H         1 UNK         0.0748 
     85 H85        29.8208   22.6871    4.9286 H         1 UNK         0.0748 
     86 H86        27.7879   25.6711    5.9747 H         1 UNK         0.0940 
     87 H87        26.1931   25.3744    5.3437 H         1 UNK         0.0940 
     88 H88        28.4718   26.6503    3.7295 H         1 UNK         0.0703 
     89 H89        25.9705   25.6430    2.8502 H         1 UNK         0.3081 
     90 H90        25.5661   25.6804    0.6729 H         1 UNK         0.0719 
     91 H91        24.5386   28.5650    0.6387 H         1 UNK         0.0809 
     92 H92        23.7521   27.1942   -0.1415 H         1 UNK         0.0809 
     93 H93        23.9203   27.2429    1.6065 H         1 UNK         0.0809 
     94 H94        26.7439   25.9899   -1.1123 H         1 UNK         0.2990 
     95 H95        26.7514   28.1702   -3.6157 H         1 UNK         0.0690 
     96 H96        29.1499   28.5770   -3.8425 H         1 UNK         0.0788 
     97 H97        29.4460   28.1426   -2.1633 H         1 UNK         0.0788 
     98 H98        28.5513   29.6060   -2.5538 H         1 UNK         0.0788 
     99 H99        28.6246   26.0475   -2.9150 H         1 UNK         0.2993 
    100 H100       26.4363   23.3829   -3.5345 H         1 UNK         0.0949 
    101 H101       28.0591   22.6628   -5.2680 H         1 UNK         0.0767 
    102 H102       27.0488   23.9534   -5.8947 H         1 UNK         0.0767 
    103 H103       28.6978   24.3030   -5.3947 H         1 UNK         0.0767 
    104 H104       29.2234   23.3392   -3.1409 H         1 UNK         0.3013 
    105 H105       29.0191   28.3067    5.0314 H         1 UNK         0.3121 
    106 H106       29.0755   30.1823    6.1429 H         1 UNK         0.0774 
    107 H107       27.2224   31.0485    7.4991 H         1 UNK         0.0815 
    108 H108       26.0663   30.0087    6.6891 H         1 UNK         0.0815 
    109 H109       27.3282   29.3074    7.7034 H         1 UNK         0.0815 
    110 H110       26.7149   29.9646    3.5649 H         1 UNK         0.2987 
    111 H111       26.8487   32.7886    2.8207 H         1 UNK         0.0949 
    112 H112       26.0456   30.3158    1.1977 H         1 UNK         0.0806 
    113 H113       24.9410   31.3749    2.0715 H         1 UNK         0.0806 
    114 H114       25.8386   31.9821    0.6873 H         1 UNK         0.0806 
    115 H115       28.4491   29.7297    1.8049 H         1 UNK         0.3010 
    116 H116       30.6605   31.0306    0.4291 H         1 UNK         0.0829 
    117 H117       29.9552   28.6415   -0.0047 H         1 UNK         0.0813 
    118 H118       31.6368   28.7444    0.4987 H         1 UNK         0.0813 
    119 H119       30.4024   28.2129    1.6371 H         1 UNK         0.0813 
    120 H120       32.4858   31.8488    1.3847 H         1 UNK         0.3038 
    121 H121       32.7078   31.8706    4.3333 H         1 UNK         0.0769 
    122 H122       32.8252   34.0084    3.0517 H         1 UNK         0.0811 
    123 H123       34.2310   33.4158    2.1658 H         1 UNK         0.0811 
    124 H124       34.3294   33.6953    3.8984 H         1 UNK         0.0811 
    125 H125       33.8649   29.8907    1.9115 H         1 UNK         0.3204 
    126 H126       36.5927   29.7628    2.1632 H         1 UNK         0.0748 
    127 H127       35.3198   28.7051    0.3306 H         1 UNK         0.0771 
    128 H128       36.3698   27.5134    1.0738 H         1 UNK         0.0771 
    129 H129       34.6511   27.5055    1.4366 H         1 UNK         0.0771 
    130 H130       34.3679   28.4124    4.4981 H         1 UNK         0.2980 
    131 H131       36.3605   26.6595    5.7073 H         1 UNK         0.0545 
    132 H132       35.9708   30.0751    5.8804 H         1 UNK         0.3459 
    133 H133       36.7640   30.2501    7.4283 H         1 UNK         0.3459 
    134 H134       34.6955   25.9853    7.2668 H         1 UNK         0.0616 
    135 H135       34.0091   25.9320    5.6824 H         1 UNK         0.0616 
    136 H136       32.5909   28.7337    4.9738 H         1 UNK         0.0634 
    137 H137       31.1172   28.5626    5.8829 H         1 UNK         0.0634 
@<TRIPOS>BOND
     1    1    2 1    
     2    1   72 1    
     3    1   73 1    
     4    1   74 1    
     5    2    3 2    
     6    2    4 am   BACKBONE|DICT|INTERRES
     7    4    5 1    
     8    4   75 1    
     9    5    6 1    
    10    5   35 1    
    11    5   76 1    
    12    6    7 1    
    13    6   77 1    
    14    6   78 1    
    15    7    8 1    
    16    8    9 1    
    17    8   79 1    
    18    8   80 1    
    19    9   10 ar   
    20    9   14 ar   
    21   10   11 ar   
    22   10   81 1    
    23   11   12 ar   
    24   11   71 1    
    25   12   13 ar   
    26   12   82 1    
    27   13   14 ar   
    28   13   15 1    
    29   14   83 1    
    30   15   16 1    
    31   15   84 1    
    32   15   85 1    
    33   16   17 1    
    34   17   18 1    
    35   17   86 1    
    36   17   87 1    
    37   18   19 1    
    38   18   37 1    
    39   18   88 1    
    40   19   20 am   BACKBONE|DICT|INTERRES
    41   19   89 1    
    42   20   21 2    
    43   20   22 1    
    44   22   23 1    
    45   22   24 1    
    46   22   90 1    
    47   23   91 1    
    48   23   92 1    
    49   23   93 1    
    50   24   25 am   BACKBONE|DICT|INTERRES
    51   24   94 1    
    52   25   26 2    
    53   25   27 1    
    54   27   28 1    
    55   27   29 1    
    56   27   95 1    
    57   28   96 1    
    58   28   97 1    
    59   28   98 1    
    60   29   30 am   BACKBONE|DICT|INTERRES
    61   29   99 1    
    62   30   31 2    
    63   30   32 1    
    64   32   33 1    
    65   32   34 1    
    66   32  100 1    
    67   33  101 1    
    68   33  102 1    
    69   33  103 1    
    70   34   35 am   BACKBONE|DICT|INTERRES
    71   34  104 1    
    72   35   36 2    
    73   37   38 2    
    74   37   39 am   BACKBONE|DICT|INTERRES
    75   39   40 1    
    76   39  105 1    
    77   40   41 1    
    78   40   42 1    
    79   40  106 1    
    80   41  107 1    
    81   41  108 1    
    82   41  109 1    
    83   42   43 2    
    84   42   44 am   BACKBONE|DICT|INTERRES
    85   44   45 1    
    86   44  110 1    
    87   45   46 1    
    88   45   47 1    
    89   45  111 1    
    90   46  112 1    
    91   46  113 1    
    92   46  114 1    
    93   47   48 2    
    94   47   49 am   BACKBONE|DICT|INTERRES
    95   49   50 1    
    96   49  115 1    
    97   50   51 1    
    98   50   52 1    
    99   50  116 1    
   100   51  117 1    
   101   51  118 1    
   102   51  119 1    
   103   52   53 2    
   104   52   54 am   BACKBONE|DICT|INTERRES
   105   54   55 1    
   106   54  120 1    
   107   55   56 1    
   108   55   57 1    
   109   55  121 1    
   110   56  122 1    
   111   56  123 1    
   112   56  124 1    
   113   57   58 2    
   114   57   59 am   BACKBONE|DICT|INTERRES
   115   59   60 1    
   116   59  125 1    
   117   60   61 1    
   118   60   62 1    
   119   60  126 1    
   120   61  127 1    
   121   61  128 1    
   122   61  129 1    
   123   62   63 2    
   124   62   64 am   BACKBONE|DICT|INTERRES
   125   64   65 1    
   126   64  130 1    
   127   65   66 1    
   128   65   69 1    
   129   65  131 1    
   130   66   67 am   BACKBONE|DICT|INTERRES
   131   66   68 2    
   132   67  132 1    
   133   67  133 1    
   134   69   70 1    
   135   69  134 1    
   136   69  135 1    
   137   70   71 1    
   138   71  136 1    
   139   71  137 1    
@<TRIPOS>SUBSTRUCTURE
     1 UNK         1 GROUP             0       ****    0 ROOT    
