@<TRIPOS>MOLECULE
3R136
137   139    1
SMALL
USER_CHARGES


@<TRIPOS>ATOM
      1 CA         27.3002   18.1246    1.0197 C.3       0 UNK        -0.1979 
      2 C          28.1321   18.8776   -0.0080 C.2       0 UNK         0.4864 
      3 O          28.1557   18.4906   -1.1771 O.2       0 UNK        -0.5359 
      4 N          28.8143   19.9487    0.4203 N.am      1 UNK        -0.4318 
      5 CA         29.6698   20.7922   -0.4264 C.3       1 UNK         0.0824 
      6 C6         30.6111   21.6914    0.4136 C.3       12 UNK        -0.0944 
      7 S7         31.8116   20.7178    1.3841 S.3       12 UNK        -0.2672 
      8 C8         31.2064   20.9221    3.0909 C.3       12 UNK         0.0333 
      9 C9         31.3891   22.3442    3.6043 C.ar      12 UNK        -0.0807 
     10 C10        32.6726   22.8366    3.8663 C.ar      12 UNK        -0.0894 
     11 C11        32.8477   24.1377    4.3470 C.ar      12 UNK        -0.0804 
     12 C12        31.7294   24.9475    4.5623 C.ar      12 UNK        -0.0824 
     13 C13        30.4416   24.4580    4.3318 C.ar      12 UNK        -0.0762 
     14 C14        30.2760   23.1573    3.8466 C.ar      12 UNK        -0.0782 
     15 C15        29.2351   25.3247    4.6522 C.3       12 UNK         0.0230 
     16 S16        28.4703   26.0041    3.1501 S.3       12 UNK        -0.2608 
     17 C17        27.4668   27.3490    3.8681 C.3       12 UNK        -0.0989 
     18 CA         27.8576   28.7163    3.2607 C.3       5 UNK         0.0716 
     19 N          27.4397   28.8066    1.8605 N.am      5 UNK        -0.4135 
     20 C          27.6067   29.8396    1.0275 C.2       4 UNK         0.5031 
     21 O          28.1187   30.9116    1.3585 O.2       4 UNK        -0.5229 
     22 CA         27.1898   29.6052   -0.4396 C.3       4 UNK         0.0329 
     23 CB         27.4350   30.8437   -1.3222 C.3       4 UNK        -0.2001 
     24 N          27.8949   28.4596   -1.0285 N.am      4 UNK        -0.4303 
     25 C          27.6284   27.1711   -0.7771 C.2       3 UNK         0.5044 
     26 O          26.7045   26.7999   -0.0471 O.2       3 UNK        -0.5152 
     27 CA         28.5944   26.1436   -1.3899 C.3       3 UNK         0.0319 
     28 CB         29.9505   26.1705   -0.6625 C.3       3 UNK        -0.2001 
     29 N          28.0507   24.7898   -1.2976 N.am      3 UNK        -0.4354 
     30 C          27.1713   24.2521   -2.1524 C.2       2 UNK         0.4964 
     31 O          26.7588   24.8331   -3.1585 O.2       2 UNK        -0.5047 
     32 CA         26.6662   22.8296   -1.8223 C.3       2 UNK         0.0288 
     33 CB         26.1809   22.0642   -3.0727 C.3       2 UNK        -0.2113 
     34 N          27.6230   22.0148   -1.0558 N.am      2 UNK        -0.4145 
     35 C          28.8624   21.6474   -1.4268 C.2       1 UNK         0.5006 
     36 O          29.3824   21.9604   -2.4992 O.2       1 UNK        -0.5103 
     37 C          27.2979   29.8756    4.1025 C.2       5 UNK         0.5055 
     38 O          26.0823   30.0794    4.1216 O.2       5 UNK        -0.5220 
     39 N          28.2022   30.6230    4.7505 N.am      6 UNK        -0.4450 
     40 CA         27.9899   31.8102    5.5912 C.3       6 UNK         0.0367 
     41 CB         27.0337   31.5218    6.7655 C.3       6 UNK        -0.1929 
     42 C          27.5652   33.0728    4.8182 C.2       6 UNK         0.5070 
     43 O          27.8904   34.1752    5.2598 O.2       6 UNK        -0.5237 
     44 N          26.8791   32.9099    3.6797 N.am      7 UNK        -0.4739 
     45 CA         26.5227   33.9829    2.7501 C.3       7 UNK         0.0276 
     46 CB         25.4916   33.4602    1.7371 C.3       7 UNK        -0.1927 
     47 C          27.7523   34.5611    2.0296 C.2       7 UNK         0.5013 
     48 O          27.8189   35.7752    1.8319 O.2       7 UNK        -0.5193 
     49 N          28.7036   33.6889    1.6732 N.am      8 UNK        -0.4253 
     50 CA         29.9783   34.0519    1.0553 C.3       8 UNK         0.0242 
     51 CB         29.8084   34.2126   -0.4665 C.3       8 UNK        -0.2000 
     52 C          31.0931   33.0468    1.3782 C.2       8 UNK         0.4948 
     53 O          32.2332   33.4708    1.5736 O.2       8 UNK        -0.5275 
     54 N          30.7718   31.7463    1.4113 N.am      9 UNK        -0.4246 
     55 CA         31.7328   30.6706    1.6532 C.3       9 UNK         0.0261 
     56 CB         31.2825   29.4056    0.9035 C.3       9 UNK        -0.1959 
     57 C          31.8776   30.3775    3.1525 C.2       9 UNK         0.5033 
     58 O          30.9003   30.4655    3.9018 O.2       9 UNK        -0.5390 
     59 N          33.0899   29.9768    3.5393 N.am      10 UNK        -0.4215 
     60 CA         33.4838   29.5177    4.8660 C.3       10 UNK         0.0240 
     61 CB         33.6894   30.7176    5.8095 C.3       10 UNK        -0.1982 
     62 C          34.7747   28.7052    4.6992 C.2       10 UNK         0.4970 
     63 O          35.4468   28.8399    3.6719 O.2       10 UNK        -0.4916 
     64 N          35.0974   27.8751    5.6967 N.am      11 UNK        -0.4279 
     65 CA         36.2668   26.9766    5.6727 C.3       11 UNK         0.1003 
     66 C          37.6315   27.6720    5.9542 C.2       11 UNK         0.5709 
     67 N          37.6660   28.9358    6.3602 N.am      11 UNK        -0.7358 
     68 O          38.6807   27.0531    5.7922 O.2       11 UNK        -0.4999 
     69 C69        36.0743   25.7353    6.5887 C.3       12 UNK        -0.0954 
     70 S70        34.4655   24.8788    6.4478 S.3       12 UNK        -0.2268 
     71 C71        34.2359   24.6782    4.6508 C.3       12 UNK         0.0203 
     72 H72        27.6350   17.0899    1.0871 H         1 UNK         0.0888 
     73 H73        27.3749   18.5698    2.0117 H         1 UNK         0.0888 
     74 H74        26.2509   18.1250    0.7259 H         1 UNK         0.0888 
     75 H75        28.7724   20.2031    1.3959 H         1 UNK         0.3017 
     76 H76        30.2934   20.1262   -1.0275 H         1 UNK         0.0873 
     77 H77        31.1918   22.3493   -0.2365 H         1 UNK         0.0745 
     78 H78        30.0387   22.3495    1.0692 H         1 UNK         0.0745 
     79 H79        31.7561   20.2386    3.7396 H         1 UNK         0.0705 
     80 H80        30.1610   20.6158    3.1455 H         1 UNK         0.0705 
     81 H81        33.5329   22.2038    3.6948 H         1 UNK         0.1334 
     82 H82        31.8649   25.9517    4.9408 H         1 UNK         0.1417 
     83 H83        29.2784   22.7801    3.6669 H         1 UNK         0.1562 
     84 H84        29.5336   26.1412    5.3119 H         1 UNK         0.0748 
     85 H85        28.4946   24.7411    5.2014 H         1 UNK         0.0748 
     86 H86        27.5912   27.3565    4.9529 H         1 UNK         0.0940 
     87 H87        26.4103   27.1352    3.6937 H         1 UNK         0.0940 
     88 H88        28.9459   28.7918    3.2695 H         1 UNK         0.0703 
     89 H89        27.0381   27.9614    1.4650 H         1 UNK         0.3081 
     90 H90        26.1173   29.3993   -0.4414 H         1 UNK         0.0719 
     91 H91        28.4954   31.0901   -1.3833 H         1 UNK         0.0809 
     92 H92        27.0686   30.6862   -2.3367 H         1 UNK         0.0809 
     93 H93        26.9186   31.7192   -0.9267 H         1 UNK         0.0809 
     94 H94        28.6848   28.6798   -1.6179 H         1 UNK         0.2990 
     95 H95        28.7525   26.3967   -2.4406 H         1 UNK         0.0690 
     96 H96        30.6301   25.4183   -1.0639 H         1 UNK         0.0788 
     97 H97        29.8421   25.9850    0.4070 H         1 UNK         0.0788 
     98 H98        30.4414   27.1367   -0.7780 H         1 UNK         0.0788 
     99 H99        28.2897   24.2677   -0.4685 H         1 UNK         0.2993 
    100 H100       25.8015   22.9717   -1.1720 H         1 UNK         0.0949 
    101 H101       26.9777   21.9437   -3.8074 H         1 UNK         0.0767 
    102 H102       25.8131   21.0717   -2.8118 H         1 UNK         0.0767 
    103 H103       25.3626   22.5921   -3.5641 H         1 UNK         0.0767 
    104 H104       27.2989   21.7001   -0.1519 H         1 UNK         0.3013 
    105 H105       29.1867   30.4304    4.5567 H         1 UNK         0.3121 
    106 H106       28.9697   32.0328    6.0172 H         1 UNK         0.0774 
    107 H107       26.9977   32.3696    7.4508 H         1 UNK         0.0815 
    108 H108       26.0132   31.3393    6.4283 H         1 UNK         0.0815 
    109 H109       27.3596   30.6547    7.3397 H         1 UNK         0.0815 
    110 H110       26.6192   31.9649    3.4213 H         1 UNK         0.2987 
    111 H111       26.0631   34.7913    3.3231 H         1 UNK         0.0949 
    112 H112       25.2035   34.2432    1.0343 H         1 UNK         0.0806 
    113 H113       25.8833   32.6262    1.1544 H         1 UNK         0.0806 
    114 H114       24.5830   33.1222    2.2357 H         1 UNK         0.0806 
    115 H115       28.5336   32.7007    1.8402 H         1 UNK         0.3010 
    116 H116       30.2997   35.0115    1.4669 H         1 UNK         0.0829 
    117 H117       29.1032   35.0086   -0.7061 H         1 UNK         0.0813 
    118 H118       30.7567   34.4676   -0.9414 H         1 UNK         0.0813 
    119 H119       29.4463   33.2946   -0.9293 H         1 UNK         0.0813 
    120 H120       29.8012   31.4602    1.3019 H         1 UNK         0.3038 
    121 H121       32.7052   30.9681    1.2537 H         1 UNK         0.0769 
    122 H122       30.3660   28.9891    1.3188 H         1 UNK         0.0811 
    123 H123       32.0431   28.6262    0.9645 H         1 UNK         0.0811 
    124 H124       31.1120   29.6093   -0.1537 H         1 UNK         0.0811 
    125 H125       33.8327   29.8821    2.8552 H         1 UNK         0.3204 
    126 H126       32.7055   28.8613    5.2613 H         1 UNK         0.0748 
    127 H127       33.9888   30.3899    6.8056 H         1 UNK         0.0771 
    128 H128       34.4620   31.3925    5.4388 H         1 UNK         0.0771 
    129 H129       32.7710   31.2939    5.9242 H         1 UNK         0.0771 
    130 H130       34.5116   27.8212    6.5170 H         1 UNK         0.2980 
    131 H131       36.3639   26.6007    4.6529 H         1 UNK         0.0545 
    132 H132       38.5568   29.3740    6.5340 H         1 UNK         0.3459 
    133 H133       36.8130   29.4539    6.4934 H         1 UNK         0.3459 
    134 H134       36.1890   26.0239    7.6351 H         1 UNK         0.0616 
    135 H135       36.8570   25.0002    6.3927 H         1 UNK         0.0616 
    136 H136       35.0111   24.0183    4.2587 H         1 UNK         0.0634 
    137 H137       34.3469   25.6344    4.1406 H         1 UNK         0.0634 
@<TRIPOS>BOND
     1    1    2 1    
     2    1   72 1    
     3    1   73 1    
     4    1   74 1    
     5    2    3 2    
     6    2    4 am   BACKBONE|DICT|INTERRES
     7    4    5 1    
     8    4   75 1    
     9    5    6 1    
    10    5   35 1    
    11    5   76 1    
    12    6    7 1    
    13    6   77 1    
    14    6   78 1    
    15    7    8 1    
    16    8    9 1    
    17    8   79 1    
    18    8   80 1    
    19    9   10 ar   
    20    9   14 ar   
    21   10   11 ar   
    22   10   81 1    
    23   11   12 ar   
    24   11   71 1    
    25   12   13 ar   
    26   12   82 1    
    27   13   14 ar   
    28   13   15 1    
    29   14   83 1    
    30   15   16 1    
    31   15   84 1    
    32   15   85 1    
    33   16   17 1    
    34   17   18 1    
    35   17   86 1    
    36   17   87 1    
    37   18   19 1    
    38   18   37 1    
    39   18   88 1    
    40   19   20 am   BACKBONE|DICT|INTERRES
    41   19   89 1    
    42   20   21 2    
    43   20   22 1    
    44   22   23 1    
    45   22   24 1    
    46   22   90 1    
    47   23   91 1    
    48   23   92 1    
    49   23   93 1    
    50   24   25 am   BACKBONE|DICT|INTERRES
    51   24   94 1    
    52   25   26 2    
    53   25   27 1    
    54   27   28 1    
    55   27   29 1    
    56   27   95 1    
    57   28   96 1    
    58   28   97 1    
    59   28   98 1    
    60   29   30 am   BACKBONE|DICT|INTERRES
    61   29   99 1    
    62   30   31 2    
    63   30   32 1    
    64   32   33 1    
    65   32   34 1    
    66   32  100 1    
    67   33  101 1    
    68   33  102 1    
    69   33  103 1    
    70   34   35 am   BACKBONE|DICT|INTERRES
    71   34  104 1    
    72   35   36 2    
    73   37   38 2    
    74   37   39 am   BACKBONE|DICT|INTERRES
    75   39   40 1    
    76   39  105 1    
    77   40   41 1    
    78   40   42 1    
    79   40  106 1    
    80   41  107 1    
    81   41  108 1    
    82   41  109 1    
    83   42   43 2    
    84   42   44 am   BACKBONE|DICT|INTERRES
    85   44   45 1    
    86   44  110 1    
    87   45   46 1    
    88   45   47 1    
    89   45  111 1    
    90   46  112 1    
    91   46  113 1    
    92   46  114 1    
    93   47   48 2    
    94   47   49 am   BACKBONE|DICT|INTERRES
    95   49   50 1    
    96   49  115 1    
    97   50   51 1    
    98   50   52 1    
    99   50  116 1    
   100   51  117 1    
   101   51  118 1    
   102   51  119 1    
   103   52   53 2    
   104   52   54 am   BACKBONE|DICT|INTERRES
   105   54   55 1    
   106   54  120 1    
   107   55   56 1    
   108   55   57 1    
   109   55  121 1    
   110   56  122 1    
   111   56  123 1    
   112   56  124 1    
   113   57   58 2    
   114   57   59 am   BACKBONE|DICT|INTERRES
   115   59   60 1    
   116   59  125 1    
   117   60   61 1    
   118   60   62 1    
   119   60  126 1    
   120   61  127 1    
   121   61  128 1    
   122   61  129 1    
   123   62   63 2    
   124   62   64 am   BACKBONE|DICT|INTERRES
   125   64   65 1    
   126   64  130 1    
   127   65   66 1    
   128   65   69 1    
   129   65  131 1    
   130   66   67 am   BACKBONE|DICT|INTERRES
   131   66   68 2    
   132   67  132 1    
   133   67  133 1    
   134   69   70 1    
   135   69  134 1    
   136   69  135 1    
   137   70   71 1    
   138   71  136 1    
   139   71  137 1    
@<TRIPOS>SUBSTRUCTURE
     1 UNK         1 GROUP             0       ****    0 ROOT    
