@<TRIPOS>MOLECULE
3R136
137   139    1
SMALL
USER_CHARGES


@<TRIPOS>ATOM
      1 CA         24.8265   22.3286   -1.0968 C.3       0 UNK        -0.1979 
      2 C          26.1845   22.2569   -0.4155 C.2       0 UNK         0.4864 
      3 O          26.2461   22.0886    0.8036 O.2       0 UNK        -0.5359 
      4 N          27.2673   22.4024   -1.1946 N.am      1 UNK        -0.4318 
      5 CA         28.6724   22.4025   -0.7653 C.3       1 UNK         0.0824 
      6 C6         29.1899   20.9830   -0.3891 C.3       12 UNK        -0.0944 
      7 S7         30.9107   20.7117   -0.9304 S.3       12 UNK        -0.2672 
      8 C8         31.8671   20.8360    0.6218 C.3       12 UNK         0.0333 
      9 C9         32.2894   22.2502    1.0274 C.ar      12 UNK        -0.0807 
     10 C10        32.5701   22.5043    2.3743 C.ar      12 UNK        -0.0894 
     11 C11        33.0153   23.7627    2.7900 C.ar      12 UNK        -0.0804 
     12 C12        33.1714   24.7827    1.8482 C.ar      12 UNK        -0.0824 
     13 C13        32.8991   24.5479    0.4984 C.ar      12 UNK        -0.0762 
     14 C14        32.4669   23.2806    0.0929 C.ar      12 UNK        -0.0782 
     15 C15        33.1122   25.6506   -0.5289 C.3       12 UNK         0.0230 
     16 S16        31.5461   26.4097   -1.0567 S.3       12 UNK        -0.2608 
     17 C17        31.0746   27.3613    0.4272 C.3       12 UNK        -0.0989 
     18 CA         29.8474   28.2651    0.1533 C.3       5 UNK         0.0716 
     19 N          28.6491   27.4797   -0.1565 N.am      5 UNK        -0.4135 
     20 C          27.5436   27.9515   -0.7493 C.2       4 UNK         0.5031 
     21 O          27.4128   29.1118   -1.1392 O.2       4 UNK        -0.5229 
     22 CA         26.3817   26.9616   -0.9328 C.3       4 UNK         0.0329 
     23 CB         26.5764   26.1107   -2.1991 C.3       4 UNK        -0.2001 
     24 N          26.2399   26.0870    0.2326 N.am      4 UNK        -0.4303 
     25 C          25.5420   26.4023    1.3330 C.2       3 UNK         0.5044 
     26 O          24.8749   27.4304    1.4472 O.2       3 UNK        -0.5152 
     27 CA         25.5913   25.4146    2.5135 C.3       3 UNK         0.0319 
     28 CB         24.3431   24.5182    2.5226 C.3       3 UNK        -0.2001 
     29 N          26.7925   24.5757    2.5227 N.am      3 UNK        -0.4354 
     30 C          28.0190   25.0244    2.8314 C.2       2 UNK         0.4964 
     31 O          28.2607   26.1888    3.1427 O.2       2 UNK        -0.5047 
     32 CA         29.1801   24.0216    2.7195 C.3       2 UNK         0.0288 
     33 CB         29.2863   23.1905    4.0084 C.3       2 UNK        -0.2113 
     34 N          29.0673   23.1182    1.5717 N.am      2 UNK        -0.4145 
     35 C          28.9064   23.4972    0.2957 C.2       1 UNK         0.5006 
     36 O          28.8506   24.6749   -0.0571 O.2       1 UNK        -0.5103 
     37 C          29.6260   29.2660    1.3070 C.2       5 UNK         0.5055 
     38 O          30.3358   30.2704    1.3572 O.2       5 UNK        -0.5220 
     39 N          28.6630   28.9956    2.2021 N.am      6 UNK        -0.4450 
     40 CA         28.2542   29.8688    3.3077 C.3       6 UNK         0.0367 
     41 CB         27.0939   29.2096    4.0715 C.3       6 UNK        -0.1929 
     42 C          27.8467   31.2839    2.8544 C.2       6 UNK         0.5070 
     43 O          27.3236   31.4567    1.7518 O.2       6 UNK        -0.5237 
     44 N          28.1028   32.2705    3.7224 N.am      7 UNK        -0.4739 
     45 CA         27.9053   33.7198    3.5595 C.3       7 UNK         0.0276 
     46 CB         26.4471   34.0804    3.2124 C.3       7 UNK        -0.1927 
     47 C          28.9011   34.3778    2.5870 C.2       7 UNK         0.5013 
     48 O          29.3886   35.4688    2.8857 O.2       7 UNK        -0.5193 
     49 N          29.2189   33.7072    1.4712 N.am      8 UNK        -0.4253 
     50 CA         30.3160   34.0699    0.5687 C.3       8 UNK         0.0242 
     51 CB         30.1687   33.3026   -0.7553 C.3       8 UNK        -0.2000 
     52 C          31.6889   33.7990    1.2113 C.2       8 UNK         0.4948 
     53 O          32.6076   34.6050    1.0576 O.2       8 UNK        -0.5275 
     54 N          31.7818   32.6840    1.9407 N.am      9 UNK        -0.4246 
     55 CA         32.8984   32.2646    2.7777 C.3       9 UNK         0.0261 
     56 CB         33.7972   31.3051    1.9718 C.3       9 UNK        -0.1959 
     57 C          32.3230   31.6113    4.0474 C.2       9 UNK         0.5033 
     58 O          31.1201   31.7155    4.3064 O.2       9 UNK        -0.5390 
     59 N          33.1816   30.9446    4.8230 N.am      10 UNK        -0.4215 
     60 CA         32.8049   30.1463    5.9850 C.3       10 UNK         0.0240 
     61 CB         32.8906   30.9999    7.2623 C.3       10 UNK        -0.1982 
     62 C          33.7434   28.9398    6.0595 C.2       10 UNK         0.4970 
     63 O          34.9250   29.0711    5.7283 O.2       10 UNK        -0.4916 
     64 N          33.2027   27.7978    6.4920 N.am      11 UNK        -0.4279 
     65 CA         33.9510   26.5529    6.7088 C.3       11 UNK         0.1003 
     66 C          34.7823   26.5957    8.0194 C.2       11 UNK         0.5709 
     67 N          35.9041   25.8900    8.0648 N.am      11 UNK        -0.7358 
     68 O          34.4045   27.2300    9.0034 O.2       11 UNK        -0.4999 
     69 C69        33.0130   25.3187    6.6818 C.3       12 UNK        -0.0954 
     70 S70        32.1912   25.1156    5.0662 S.3       12 UNK        -0.2268 
     71 C71        33.3781   24.0102    4.2460 C.3       12 UNK         0.0203 
     72 H72        24.9147   22.3240   -2.1830 H         1 UNK         0.0888 
     73 H73        24.2147   21.4756   -0.8044 H         1 UNK         0.0888 
     74 H74        24.3063   23.2394   -0.8020 H         1 UNK         0.0888 
     75 H75        27.1312   22.5593   -2.1837 H         1 UNK         0.3017 
     76 H76        29.2215   22.7376   -1.6471 H         1 UNK         0.0873 
     77 H77        29.0574   20.7264    0.6619 H         1 UNK         0.0745 
     78 H78        28.6020   20.2351   -0.9240 H         1 UNK         0.0745 
     79 H79        31.3023   20.3628    1.4265 H         1 UNK         0.0705 
     80 H80        32.7747   20.2433    0.5015 H         1 UNK         0.0705 
     81 H81        32.4614   21.7110    3.1015 H         1 UNK         0.1334 
     82 H82        33.5198   25.7554    2.1681 H         1 UNK         0.1417 
     83 H83        32.2795   23.1047   -0.9569 H         1 UNK         0.1562 
     84 H84        33.6110   25.2340   -1.4052 H         1 UNK         0.0748 
     85 H85        33.7789   26.4224   -0.1410 H         1 UNK         0.0748 
     86 H86        31.9349   27.9612    0.7316 H         1 UNK         0.0940 
     87 H87        30.8700   26.6699    1.2471 H         1 UNK         0.0940 
     88 H88        30.0729   28.8702   -0.7278 H         1 UNK         0.0703 
     89 H89        28.7124   26.4803    0.0288 H         1 UNK         0.3081 
     90 H90        25.4647   27.5413   -1.0600 H         1 UNK         0.0719 
     91 H91        27.4941   25.5233   -2.1623 H         1 UNK         0.0809 
     92 H92        25.7432   25.4235   -2.3465 H         1 UNK         0.0809 
     93 H93        26.6341   26.7444   -3.0850 H         1 UNK         0.0809 
     94 H94        26.8184   25.2569    0.2466 H         1 UNK         0.2990 
     95 H95        25.5866   26.0069    3.4313 H         1 UNK         0.0690 
     96 H96        24.3326   23.8619    3.3930 H         1 UNK         0.0788 
     97 H97        24.2861   23.8932    1.6316 H         1 UNK         0.0788 
     98 H98        23.4324   25.1178    2.5588 H         1 UNK         0.0788 
     99 H99        26.6826   23.6135    2.2177 H         1 UNK         0.2993 
    100 H100       30.1012   24.5950    2.5962 H         1 UNK         0.0949 
    101 H101       30.1701   22.5535    4.0007 H         1 UNK         0.0767 
    102 H102       29.3659   23.8375    4.8832 H         1 UNK         0.0767 
    103 H103       28.4129   22.5534    4.1530 H         1 UNK         0.0767 
    104 H104       29.0498   22.1316    1.7793 H         1 UNK         0.3013 
    105 H105       28.1849   28.1061    2.1352 H         1 UNK         0.3121 
    106 H106       29.1097   29.9540    3.9803 H         1 UNK         0.0774 
    107 H107       26.2409   29.0194    3.4186 H         1 UNK         0.0815 
    108 H108       26.7456   29.8466    4.8856 H         1 UNK         0.0815 
    109 H109       27.3963   28.2622    4.5165 H         1 UNK         0.0815 
    110 H110       28.6118   32.0153    4.5596 H         1 UNK         0.2987 
    111 H111       28.1149   34.1465    4.5420 H         1 UNK         0.0949 
    112 H112       26.1659   33.7459    2.2137 H         1 UNK         0.0806 
    113 H113       25.7488   33.6400    3.9240 H         1 UNK         0.0806 
    114 H114       26.3006   35.1609    3.2404 H         1 UNK         0.0806 
    115 H115       28.7415   32.8267    1.3036 H         1 UNK         0.3010 
    116 H116       30.2493   35.1390    0.3557 H         1 UNK         0.0829 
    117 H117       29.2250   33.5389   -1.2471 H         1 UNK         0.0813 
    118 H118       30.9701   33.5636   -1.4478 H         1 UNK         0.0813 
    119 H119       30.2062   32.2228   -0.6047 H         1 UNK         0.0813 
    120 H120       30.9792   32.0615    1.9910 H         1 UNK         0.3038 
    121 H121       33.4759   33.1381    3.0868 H         1 UNK         0.0769 
    122 H122       34.6986   31.0369    2.5232 H         1 UNK         0.0811 
    123 H123       34.1226   31.7629    1.0374 H         1 UNK         0.0811 
    124 H124       33.2728   30.3814    1.7222 H         1 UNK         0.0811 
    125 H125       34.1521   30.8558    4.5487 H         1 UNK         0.3204 
    126 H126       31.7825   29.7802    5.8640 H         1 UNK         0.0748 
    127 H127       33.8970   31.3902    7.4190 H         1 UNK         0.0771 
    128 H128       32.2059   31.8471    7.2177 H         1 UNK         0.0771 
    129 H129       32.6255   30.4138    8.1434 H         1 UNK         0.0771 
    130 H130       32.2323   27.7805    6.7671 H         1 UNK         0.2980 
    131 H131       34.6593   26.4476    5.8841 H         1 UNK         0.0545 
    132 H132       36.4504   25.8946    8.9120 H         1 UNK         0.3459 
    133 H133       36.2201   25.3579    7.2690 H         1 UNK         0.3459 
    134 H134       33.5639   24.4047    6.9121 H         1 UNK         0.0616 
    135 H135       32.2421   25.4071    7.4495 H         1 UNK         0.0616 
    136 H136       33.4271   23.0694    4.7964 H         1 UNK         0.0634 
    137 H137       34.3750   24.4504    4.2947 H         1 UNK         0.0634 
@<TRIPOS>BOND
     1    1    2 1    
     2    1   72 1    
     3    1   73 1    
     4    1   74 1    
     5    2    3 2    
     6    2    4 am   BACKBONE|DICT|INTERRES
     7    4    5 1    
     8    4   75 1    
     9    5    6 1    
    10    5   35 1    
    11    5   76 1    
    12    6    7 1    
    13    6   77 1    
    14    6   78 1    
    15    7    8 1    
    16    8    9 1    
    17    8   79 1    
    18    8   80 1    
    19    9   10 ar   
    20    9   14 ar   
    21   10   11 ar   
    22   10   81 1    
    23   11   12 ar   
    24   11   71 1    
    25   12   13 ar   
    26   12   82 1    
    27   13   14 ar   
    28   13   15 1    
    29   14   83 1    
    30   15   16 1    
    31   15   84 1    
    32   15   85 1    
    33   16   17 1    
    34   17   18 1    
    35   17   86 1    
    36   17   87 1    
    37   18   19 1    
    38   18   37 1    
    39   18   88 1    
    40   19   20 am   BACKBONE|DICT|INTERRES
    41   19   89 1    
    42   20   21 2    
    43   20   22 1    
    44   22   23 1    
    45   22   24 1    
    46   22   90 1    
    47   23   91 1    
    48   23   92 1    
    49   23   93 1    
    50   24   25 am   BACKBONE|DICT|INTERRES
    51   24   94 1    
    52   25   26 2    
    53   25   27 1    
    54   27   28 1    
    55   27   29 1    
    56   27   95 1    
    57   28   96 1    
    58   28   97 1    
    59   28   98 1    
    60   29   30 am   BACKBONE|DICT|INTERRES
    61   29   99 1    
    62   30   31 2    
    63   30   32 1    
    64   32   33 1    
    65   32   34 1    
    66   32  100 1    
    67   33  101 1    
    68   33  102 1    
    69   33  103 1    
    70   34   35 am   BACKBONE|DICT|INTERRES
    71   34  104 1    
    72   35   36 2    
    73   37   38 2    
    74   37   39 am   BACKBONE|DICT|INTERRES
    75   39   40 1    
    76   39  105 1    
    77   40   41 1    
    78   40   42 1    
    79   40  106 1    
    80   41  107 1    
    81   41  108 1    
    82   41  109 1    
    83   42   43 2    
    84   42   44 am   BACKBONE|DICT|INTERRES
    85   44   45 1    
    86   44  110 1    
    87   45   46 1    
    88   45   47 1    
    89   45  111 1    
    90   46  112 1    
    91   46  113 1    
    92   46  114 1    
    93   47   48 2    
    94   47   49 am   BACKBONE|DICT|INTERRES
    95   49   50 1    
    96   49  115 1    
    97   50   51 1    
    98   50   52 1    
    99   50  116 1    
   100   51  117 1    
   101   51  118 1    
   102   51  119 1    
   103   52   53 2    
   104   52   54 am   BACKBONE|DICT|INTERRES
   105   54   55 1    
   106   54  120 1    
   107   55   56 1    
   108   55   57 1    
   109   55  121 1    
   110   56  122 1    
   111   56  123 1    
   112   56  124 1    
   113   57   58 2    
   114   57   59 am   BACKBONE|DICT|INTERRES
   115   59   60 1    
   116   59  125 1    
   117   60   61 1    
   118   60   62 1    
   119   60  126 1    
   120   61  127 1    
   121   61  128 1    
   122   61  129 1    
   123   62   63 2    
   124   62   64 am   BACKBONE|DICT|INTERRES
   125   64   65 1    
   126   64  130 1    
   127   65   66 1    
   128   65   69 1    
   129   65  131 1    
   130   66   67 am   BACKBONE|DICT|INTERRES
   131   66   68 2    
   132   67  132 1    
   133   67  133 1    
   134   69   70 1    
   135   69  134 1    
   136   69  135 1    
   137   70   71 1    
   138   71  136 1    
   139   71  137 1    
@<TRIPOS>SUBSTRUCTURE
     1 UNK         1 GROUP             0       ****    0 ROOT    
