@<TRIPOS>MOLECULE
3R136
137   139    1
SMALL
USER_CHARGES


@<TRIPOS>ATOM
      1 CA         30.4850   18.6153    0.4732 C.3       0 UNK        -0.1979 
      2 C          29.6397   19.8794    0.4382 C.2       0 UNK         0.4864 
      3 O          29.1013   20.2807    1.4707 O.2       0 UNK        -0.5359 
      4 N          29.5060   20.4972   -0.7445 N.am      1 UNK        -0.4318 
      5 CA         28.8015   21.7568   -1.0511 C.3       1 UNK         0.0824 
      6 C6         29.3191   22.9885   -0.2624 C.3       12 UNK        -0.0944 
      7 S7         31.1219   23.2415   -0.3957 S.3       12 UNK        -0.2672 
      8 C8         31.6411   23.1013    1.3455 C.3       12 UNK         0.0333 
      9 C9         31.2681   24.3412    2.1466 C.ar      12 UNK        -0.0807 
     10 C10        32.1059   25.4605    2.1345 C.ar      12 UNK        -0.0894 
     11 C11        31.7751   26.6023    2.8700 C.ar      12 UNK        -0.0804 
     12 C12        30.5892   26.6273    3.6086 C.ar      12 UNK        -0.0824 
     13 C13        29.7390   25.5180    3.6209 C.ar      12 UNK        -0.0762 
     14 C14        30.0920   24.3719    2.9031 C.ar      12 UNK        -0.0782 
     15 C15        28.4314   25.5600    4.3978 C.3       12 UNK         0.0230 
     16 S16        26.9996   25.7959    3.2949 S.3       12 UNK        -0.2608 
     17 C17        27.3323   27.4465    2.5911 C.3       12 UNK        -0.0989 
     18 CA         27.8895   27.3646    1.1483 C.3       5 UNK         0.0716 
     19 N          26.9196   26.7747    0.2227 N.am      5 UNK        -0.4135 
     20 C          27.1867   26.3807   -1.0273 C.2       4 UNK         0.5031 
     21 O          28.3191   26.3933   -1.5137 O.2       4 UNK        -0.5229 
     22 CA         25.9916   25.9000   -1.8757 C.3       4 UNK         0.0329 
     23 CB         26.4270   25.3195   -3.2348 C.3       4 UNK        -0.2001 
     24 N          25.1452   24.9209   -1.1827 N.am      4 UNK        -0.4303 
     25 C          24.1912   25.2283   -0.2902 C.2       3 UNK         0.5044 
     26 O          24.0009   26.3747    0.1189 O.2       3 UNK        -0.5152 
     27 CA         23.2835   24.0976    0.2303 C.3       3 UNK         0.0319 
     28 CB         21.9161   24.1482   -0.4707 C.3       3 UNK        -0.2001 
     29 N          23.8537   22.7607    0.0599 N.am      3 UNK        -0.4354 
     30 C          24.8017   22.2375    0.8467 C.2       2 UNK         0.4964 
     31 O          25.2670   22.8122    1.8310 O.2       2 UNK        -0.5047 
     32 CA         25.3487   20.8480    0.4710 C.3       2 UNK         0.0288 
     33 CB         24.5205   20.0941   -0.5962 C.3       2 UNK        -0.2113 
     34 N          26.7544   20.9505    0.0718 N.am      2 UNK        -0.4145 
     35 C          27.2632   21.6757   -0.9343 C.2       1 UNK         0.5006 
     36 O          26.5692   22.2897   -1.7470 O.2       1 UNK        -0.5103 
     37 C          28.3042   28.7629    0.6506 C.2       5 UNK         0.5055 
     38 O          27.4307   29.5637    0.3055 O.2       5 UNK        -0.5220 
     39 N          29.6150   29.0374    0.6270 N.am      6 UNK        -0.4450 
     40 CA         30.1675   30.3321    0.2245 C.3       6 UNK         0.0367 
     41 CB         31.6614   30.1818   -0.1030 C.3       6 UNK        -0.1929 
     42 C          29.9537   31.3817    1.3257 C.2       6 UNK         0.5070 
     43 O          30.3092   31.1328    2.4802 O.2       6 UNK        -0.5237 
     44 N          29.3878   32.5342    0.9499 N.am      7 UNK        -0.4739 
     45 CA         29.1480   33.6653    1.8464 C.3       7 UNK         0.0276 
     46 CB         28.1697   34.6448    1.1777 C.3       7 UNK        -0.1927 
     47 C          30.4615   34.3763    2.2076 C.2       7 UNK         0.5013 
     48 O          31.2900   34.6028    1.3227 O.2       7 UNK        -0.5193 
     49 N          30.6109   34.7207    3.4948 N.am      8 UNK        -0.4253 
     50 CA         31.7439   35.4322    4.1087 C.3       8 UNK         0.0242 
     51 CB         31.8596   36.8656    3.5458 C.3       8 UNK        -0.2000 
     52 C          33.0946   34.6831    4.0675 C.2       8 UNK         0.4948 
     53 O          34.1228   35.2850    4.3841 O.2       8 UNK        -0.5275 
     54 N          33.0848   33.3930    3.7081 N.am      9 UNK        -0.4246 
     55 CA         34.2546   32.5165    3.7260 C.3       9 UNK         0.0261 
     56 CB         34.0133   31.3514    2.7553 C.3       9 UNK        -0.1959 
     57 C          34.5099   31.9911    5.1461 C.2       9 UNK         0.5033 
     58 O          33.5589   31.7895    5.9068 O.2       9 UNK        -0.5390 
     59 N          35.7812   31.7229    5.4681 N.am      10 UNK        -0.4215 
     60 CA         36.2437   31.2191    6.7682 C.3       10 UNK         0.0240 
     61 CB         37.7286   31.5913    6.9446 C.3       10 UNK        -0.1982 
     62 C          35.9827   29.7089    6.9680 C.2       10 UNK         0.4970 
     63 O          36.8686   28.9875    7.4304 O.2       10 UNK        -0.4916 
     64 N          34.7759   29.2577    6.6123 N.am      11 UNK        -0.4279 
     65 CA         34.3122   27.8671    6.7362 C.3       11 UNK         0.1003 
     66 C          33.7098   27.5262    8.1301 C.2       11 UNK         0.5709 
     67 N          33.5329   28.4823    9.0351 N.am      11 UNK        -0.7358 
     68 O          33.4111   26.3660    8.4032 O.2       11 UNK        -0.4999 
     69 C69        33.3359   27.4946    5.5903 C.3       12 UNK        -0.0954 
     70 S70        34.1307   27.5930    3.9514 S.3       12 UNK        -0.2268 
     71 C71        32.6938   27.8134    2.8586 C.3       12 UNK         0.0203 
     72 H72        30.8956   18.3708   -0.5062 H         1 UNK         0.0888 
     73 H73        31.3158   18.7410    1.1669 H         1 UNK         0.0888 
     74 H74        29.8840   17.7711    0.8101 H         1 UNK         0.0888 
     75 H75        29.9580   20.0791   -1.5460 H         1 UNK         0.3017 
     76 H76        29.0071   21.9439   -2.1065 H         1 UNK         0.0873 
     77 H77        29.0313   22.9066    0.7848 H         1 UNK         0.0745 
     78 H78        28.8401   23.8972   -0.6285 H         1 UNK         0.0745 
     79 H79        32.7221   22.9575    1.3780 H         1 UNK         0.0705 
     80 H80        31.2039   22.2069    1.7918 H         1 UNK         0.0705 
     81 H81        33.0195   25.4416    1.5557 H         1 UNK         0.1334 
     82 H82        30.3266   27.5132    4.1709 H         1 UNK         0.1417 
     83 H83        29.4379   23.5109    2.9242 H         1 UNK         0.1562 
     84 H84        28.4478   26.3529    5.1472 H         1 UNK         0.0748 
     85 H85        28.3042   24.6255    4.9463 H         1 UNK         0.0748 
     86 H86        28.0204   27.9836    3.2463 H         1 UNK         0.0940 
     87 H87        26.4019   28.0179    2.6088 H         1 UNK         0.0940 
     88 H88        28.7736   26.7230    1.1514 H         1 UNK         0.0703 
     89 H89        25.9520   26.7584    0.5251 H         1 UNK         0.3081 
     90 H90        25.3880   26.7855   -2.0867 H         1 UNK         0.0719 
     91 H91        25.5695   24.9902   -3.8218 H         1 UNK         0.0809 
     92 H92        26.9546   26.0681   -3.8272 H         1 UNK         0.0809 
     93 H93        27.0997   24.4700   -3.1154 H         1 UNK         0.0809 
     94 H94        25.3100   23.9467   -1.4128 H         1 UNK         0.2990 
     95 H95        23.1231   24.2746    1.2962 H         1 UNK         0.0690 
     96 H96        21.4442   25.1228   -0.3366 H         1 UNK         0.0788 
     97 H97        21.2334   23.4018   -0.0639 H         1 UNK         0.0788 
     98 H98        22.0048   23.9744   -1.5439 H         1 UNK         0.0788 
     99 H99        23.5425   22.2257   -0.7384 H         1 UNK         0.2993 
    100 H100       25.3273   20.2549    1.3867 H         1 UNK         0.0949 
    101 H101       24.5137   20.6023   -1.5609 H         1 UNK         0.0767 
    102 H102       24.9210   19.0935   -0.7597 H         1 UNK         0.0767 
    103 H103       23.4847   19.9723   -0.2762 H         1 UNK         0.0767 
    104 H104       27.4329   20.5563    0.7210 H         1 UNK         0.3013 
    105 H105       30.2709   28.3421    0.9516 H         1 UNK         0.3121 
    106 H106       29.6555   30.6553   -0.6849 H         1 UNK         0.0774 
    107 H107       32.2405   29.8941    0.7729 H         1 UNK         0.0815 
    108 H108       32.0742   31.1242   -0.4657 H         1 UNK         0.0815 
    109 H109       31.8275   29.4348   -0.8794 H         1 UNK         0.0815 
    110 H110       29.1553   32.6723   -0.0231 H         1 UNK         0.2987 
    111 H111       28.6834   33.2836    2.7588 H         1 UNK         0.0949 
    112 H112       28.5756   35.0519    0.2505 H         1 UNK         0.0806 
    113 H113       27.2199   34.1624    0.9460 H         1 UNK         0.0806 
    114 H114       27.9518   35.4881    1.8347 H         1 UNK         0.0806 
    115 H115       29.8710   34.4692    4.1368 H         1 UNK         0.3010 
    116 H116       31.4962   35.5199    5.1677 H         1 UNK         0.0829 
    117 H117       30.9098   37.3962    3.6108 H         1 UNK         0.0813 
    118 H118       32.5921   37.4496    4.1045 H         1 UNK         0.0813 
    119 H119       32.1745   36.8669    2.5019 H         1 UNK         0.0813 
    120 H120       32.1968   32.9563    3.5052 H         1 UNK         0.3038 
    121 H121       35.1297   33.0771    3.3899 H         1 UNK         0.0769 
    122 H122       33.1192   30.7915    3.0271 H         1 UNK         0.0811 
    123 H123       34.8512   30.6528    2.7545 H         1 UNK         0.0811 
    124 H124       33.8856   31.7086    1.7333 H         1 UNK         0.0811 
    125 H125       36.4956   31.8668    4.7682 H         1 UNK         0.3204 
    126 H126       35.6839   31.7350    7.5514 H         1 UNK         0.0748 
    127 H127       37.8830   32.6663    6.8483 H         1 UNK         0.0771 
    128 H128       38.0916   31.3046    7.9327 H         1 UNK         0.0771 
    129 H129       38.3598   31.0932    6.2074 H         1 UNK         0.0771 
    130 H130       34.0993   29.9355    6.2763 H         1 UNK         0.2980 
    131 H131       35.1805   27.2129    6.6371 H         1 UNK         0.0545 
    132 H132       33.7734   29.4373    8.8246 H         1 UNK         0.3459 
    133 H133       33.1483   28.2439    9.9357 H         1 UNK         0.3459 
    134 H134       32.9629   26.4756    5.7098 H         1 UNK         0.0616 
    135 H135       32.4632   28.1496    5.6097 H         1 UNK         0.0616 
    136 H136       33.0562   27.9829    1.8444 H         1 UNK         0.0634 
    137 H137       32.1460   28.7106    3.1494 H         1 UNK         0.0634 
@<TRIPOS>BOND
     1    1    2 1    
     2    1   72 1    
     3    1   73 1    
     4    1   74 1    
     5    2    3 2    
     6    2    4 am   BACKBONE|DICT|INTERRES
     7    4    5 1    
     8    4   75 1    
     9    5    6 1    
    10    5   35 1    
    11    5   76 1    
    12    6    7 1    
    13    6   77 1    
    14    6   78 1    
    15    7    8 1    
    16    8    9 1    
    17    8   79 1    
    18    8   80 1    
    19    9   10 ar   
    20    9   14 ar   
    21   10   11 ar   
    22   10   81 1    
    23   11   12 ar   
    24   11   71 1    
    25   12   13 ar   
    26   12   82 1    
    27   13   14 ar   
    28   13   15 1    
    29   14   83 1    
    30   15   16 1    
    31   15   84 1    
    32   15   85 1    
    33   16   17 1    
    34   17   18 1    
    35   17   86 1    
    36   17   87 1    
    37   18   19 1    
    38   18   37 1    
    39   18   88 1    
    40   19   20 am   BACKBONE|DICT|INTERRES
    41   19   89 1    
    42   20   21 2    
    43   20   22 1    
    44   22   23 1    
    45   22   24 1    
    46   22   90 1    
    47   23   91 1    
    48   23   92 1    
    49   23   93 1    
    50   24   25 am   BACKBONE|DICT|INTERRES
    51   24   94 1    
    52   25   26 2    
    53   25   27 1    
    54   27   28 1    
    55   27   29 1    
    56   27   95 1    
    57   28   96 1    
    58   28   97 1    
    59   28   98 1    
    60   29   30 am   BACKBONE|DICT|INTERRES
    61   29   99 1    
    62   30   31 2    
    63   30   32 1    
    64   32   33 1    
    65   32   34 1    
    66   32  100 1    
    67   33  101 1    
    68   33  102 1    
    69   33  103 1    
    70   34   35 am   BACKBONE|DICT|INTERRES
    71   34  104 1    
    72   35   36 2    
    73   37   38 2    
    74   37   39 am   BACKBONE|DICT|INTERRES
    75   39   40 1    
    76   39  105 1    
    77   40   41 1    
    78   40   42 1    
    79   40  106 1    
    80   41  107 1    
    81   41  108 1    
    82   41  109 1    
    83   42   43 2    
    84   42   44 am   BACKBONE|DICT|INTERRES
    85   44   45 1    
    86   44  110 1    
    87   45   46 1    
    88   45   47 1    
    89   45  111 1    
    90   46  112 1    
    91   46  113 1    
    92   46  114 1    
    93   47   48 2    
    94   47   49 am   BACKBONE|DICT|INTERRES
    95   49   50 1    
    96   49  115 1    
    97   50   51 1    
    98   50   52 1    
    99   50  116 1    
   100   51  117 1    
   101   51  118 1    
   102   51  119 1    
   103   52   53 2    
   104   52   54 am   BACKBONE|DICT|INTERRES
   105   54   55 1    
   106   54  120 1    
   107   55   56 1    
   108   55   57 1    
   109   55  121 1    
   110   56  122 1    
   111   56  123 1    
   112   56  124 1    
   113   57   58 2    
   114   57   59 am   BACKBONE|DICT|INTERRES
   115   59   60 1    
   116   59  125 1    
   117   60   61 1    
   118   60   62 1    
   119   60  126 1    
   120   61  127 1    
   121   61  128 1    
   122   61  129 1    
   123   62   63 2    
   124   62   64 am   BACKBONE|DICT|INTERRES
   125   64   65 1    
   126   64  130 1    
   127   65   66 1    
   128   65   69 1    
   129   65  131 1    
   130   66   67 am   BACKBONE|DICT|INTERRES
   131   66   68 2    
   132   67  132 1    
   133   67  133 1    
   134   69   70 1    
   135   69  134 1    
   136   69  135 1    
   137   70   71 1    
   138   71  136 1    
   139   71  137 1    
@<TRIPOS>SUBSTRUCTURE
     1 UNK         1 GROUP             0       ****    0 ROOT    
