@<TRIPOS>MOLECULE
3R136
137   139    1
SMALL
USER_CHARGES


@<TRIPOS>ATOM
      1 CA         28.9224   25.3967   -5.3245 C.3       0 UNK        -0.1979 
      2 C          28.5778   25.8104   -3.9018 C.2       0 UNK         0.4864 
      3 O          27.4647   26.2763   -3.6537 O.2       0 UNK        -0.5359 
      4 N          29.5204   25.6334   -2.9640 N.am      1 UNK        -0.4318 
      5 CA         29.3818   25.9686   -1.5395 C.3       1 UNK         0.0824 
      6 C6         30.7083   25.7805   -0.7595 C.3       12 UNK        -0.0944 
      7 S7         31.3859   24.0877   -0.8738 S.3       12 UNK        -0.2672 
      8 C8         32.5428   24.0662    0.5323 C.3       12 UNK         0.0333 
      9 C9         31.8884   23.9676    1.9106 C.ar      12 UNK        -0.0807 
     10 C10        32.4899   24.6305    2.9853 C.ar      12 UNK        -0.0894 
     11 C11        32.0006   24.4776    4.2844 C.ar      12 UNK        -0.0804 
     12 C12        30.8799   23.6734    4.5051 C.ar      12 UNK        -0.0824 
     13 C13        30.2532   23.0135    3.4426 C.ar      12 UNK        -0.0762 
     14 C14        30.7642   23.1617    2.1469 C.ar      12 UNK        -0.0782 
     15 C15        29.0677   22.0904    3.7168 C.3       12 UNK         0.0230 
     16 S16        27.4484   22.8312    3.3137 S.3       12 UNK        -0.2608 
     17 C17        27.4628   24.3674    4.2980 C.3       12 UNK        -0.0989 
     18 CA         27.7914   25.5666    3.3727 C.3       5 UNK         0.0716 
     19 N          26.6698   26.0064    2.5396 N.am      5 UNK        -0.4135 
     20 C          25.5452   26.6186    2.9345 C.2       4 UNK         0.5031 
     21 O          25.2330   26.7893    4.1134 O.2       4 UNK        -0.5229 
     22 CA         24.6107   27.1608    1.8397 C.3       4 UNK         0.0329 
     23 CB         24.9030   28.6488    1.5791 C.3       4 UNK        -0.2001 
     24 N          24.7057   26.4228    0.5749 N.am      4 UNK        -0.4303 
     25 C          23.6536   26.0330   -0.1608 C.2       3 UNK         0.5044 
     26 O          22.4819   26.2589    0.1456 O.2       3 UNK        -0.5152 
     27 CA         23.9395   25.2661   -1.4688 C.3       3 UNK         0.0319 
     28 CB         23.8900   26.2219   -2.6715 C.3       3 UNK        -0.2001 
     29 N          25.2251   24.5658   -1.4720 N.am      3 UNK        -0.4354 
     30 C          25.5345   23.5302   -0.6783 C.2       2 UNK         0.4964 
     31 O          24.7205   22.9735    0.0588 O.2       2 UNK        -0.5047 
     32 CA         26.9955   23.0395   -0.6792 C.3       2 UNK         0.0288 
     33 CB         27.1113   21.6907   -1.4077 C.3       2 UNK        -0.2113 
     34 N          27.9803   23.9677   -1.2471 N.am      2 UNK        -0.4145 
     35 C          28.2251   25.2244   -0.8446 C.2       1 UNK         0.5006 
     36 O          27.5661   25.8106    0.0138 O.2       1 UNK        -0.5103 
     37 C          28.4528   26.7659    4.0728 C.2       5 UNK         0.5055 
     38 O          28.4699   26.8583    5.3013 O.2       5 UNK        -0.5220 
     39 N          28.9835   27.6633    3.2364 N.am      6 UNK        -0.4450 
     40 CA         29.8833   28.7469    3.5954 C.3       6 UNK         0.0367 
     41 CB         29.1521   30.0934    3.4675 C.3       6 UNK        -0.1929 
     42 C          31.0481   28.6603    2.6069 C.2       6 UNK         0.5070 
     43 O          30.8027   28.5546    1.4018 O.2       6 UNK        -0.5237 
     44 N          32.2874   28.7092    3.1079 N.am      7 UNK        -0.4739 
     45 CA         33.5097   28.6933    2.2996 C.3       7 UNK         0.0276 
     46 CB         34.6918   28.2394    3.1747 C.3       7 UNK        -0.1927 
     47 C          33.7461   30.0688    1.6483 C.2       7 UNK         0.5013 
     48 O          34.6193   30.8217    2.0853 O.2       7 UNK        -0.5193 
     49 N          32.9094   30.3884    0.6516 N.am      8 UNK        -0.4253 
     50 CA         32.7925   31.6490   -0.0927 C.3       8 UNK         0.0242 
     51 CB         34.0943   32.0063   -0.8390 C.3       8 UNK        -0.2000 
     52 C          32.2877   32.8126    0.7774 C.2       8 UNK         0.4948 
     53 O          31.2180   33.3540    0.4966 O.2       8 UNK        -0.5275 
     54 N          33.0529   33.1601    1.8177 N.am      9 UNK        -0.4246 
     55 CA         32.6892   34.1420    2.8361 C.3       9 UNK         0.0261 
     56 CB         33.9472   34.8946    3.3065 C.3       9 UNK        -0.1959 
     57 C          31.9729   33.4431    3.9996 C.2       9 UNK         0.5033 
     58 O          30.7935   33.7069    4.2353 O.2       9 UNK        -0.5390 
     59 N          32.6940   32.5517    4.6887 N.am      10 UNK        -0.4215 
     60 CA         32.2438   31.7627    5.8314 C.3       10 UNK         0.0240 
     61 CB         32.0595   32.6558    7.0745 C.3       10 UNK        -0.1982 
     62 C          33.2979   30.6839    6.0968 C.2       10 UNK         0.4970 
     63 O          34.4590   30.8687    5.7253 O.2       10 UNK        -0.4916 
     64 N          32.8799   29.5879    6.7390 N.am      11 UNK        -0.4279 
     65 CA         33.7483   28.4544    7.1074 C.3       11 UNK         0.1003 
     66 C          34.7370   28.7412    8.2766 C.2       11 UNK         0.5709 
     67 N          34.5980   29.8344    9.0176 N.am      11 UNK        -0.7358 
     68 O          35.6535   27.9569    8.5101 O.2       11 UNK        -0.4999 
     69 C69        32.9234   27.1709    7.3866 C.3       12 UNK        -0.0954 
     70 S70        31.8995   26.6694    5.9638 S.3       12 UNK        -0.2268 
     71 C71        32.7161   25.1304    5.4580 C.3       12 UNK         0.0203 
     72 H72        28.2273   24.6327   -5.6715 H         1 UNK         0.0888 
     73 H73        28.8474   26.2545   -5.9923 H         1 UNK         0.0888 
     74 H74        29.9330   24.9957   -5.3997 H         1 UNK         0.0888 
     75 H75        30.4117   25.2352   -3.2256 H         1 UNK         0.3017 
     76 H76        29.1278   27.0300   -1.4949 H         1 UNK         0.0873 
     77 H77        30.5733   26.0434    0.2919 H         1 UNK         0.0745 
     78 H78        31.4599   26.4739   -1.1401 H         1 UNK         0.0745 
     79 H79        33.1745   24.9539    0.4694 H         1 UNK         0.0705 
     80 H80        33.2072   23.2095    0.4132 H         1 UNK         0.0705 
     81 H81        33.3692   25.2367    2.8170 H         1 UNK         0.1334 
     82 H82        30.5091   23.5471    5.5132 H         1 UNK         0.1417 
     83 H83        30.3011   22.6263    1.3293 H         1 UNK         0.1562 
     84 H84        29.0609   21.7817    4.7635 H         1 UNK         0.0748 
     85 H85        29.1839   21.1735    3.1371 H         1 UNK         0.0748 
     86 H86        28.1904   24.2641    5.1037 H         1 UNK         0.0940 
     87 H87        26.4970   24.4969    4.7879 H         1 UNK         0.0940 
     88 H88        28.5524   25.2275    2.6670 H         1 UNK         0.0703 
     89 H89        26.8636   25.9369    1.5421 H         1 UNK         0.3081 
     90 H90        23.5978   27.0780    2.2398 H         1 UNK         0.0719 
     91 H91        24.8407   29.2284    2.5013 H         1 UNK         0.0809 
     92 H92        25.9018   28.7967    1.1663 H         1 UNK         0.0809 
     93 H93        24.1844   29.0762    0.8796 H         1 UNK         0.0809 
     94 H94        25.6353   26.1973    0.2376 H         1 UNK         0.2990 
     95 H95        23.1506   24.5208   -1.5904 H         1 UNK         0.0690 
     96 H96        24.6759   26.9768   -2.6187 H         1 UNK         0.0788 
     97 H97        22.9345   26.7465   -2.7160 H         1 UNK         0.0788 
     98 H98        24.0071   25.6831   -3.6120 H         1 UNK         0.0788 
     99 H99        25.9533   24.9598   -2.0535 H         1 UNK         0.2993 
    100 H100       27.2716   22.8863    0.3652 H         1 UNK         0.0949 
    101 H101       26.8821   21.7862   -2.4699 H         1 UNK         0.0767 
    102 H102       28.1144   21.2738   -1.3146 H         1 UNK         0.0767 
    103 H103       26.4197   20.9581   -0.9888 H         1 UNK         0.0767 
    104 H104       28.5803   23.5930   -1.9676 H         1 UNK         0.3013 
    105 H105       28.9373   27.4893    2.2401 H         1 UNK         0.3121 
    106 H106       30.2501   28.6293    4.6160 H         1 UNK         0.0774 
    107 H107       29.8223   30.9275    3.6776 H         1 UNK         0.0815 
    108 H108       28.7537   30.2436    2.4632 H         1 UNK         0.0815 
    109 H109       28.3203   30.1576    4.1691 H         1 UNK         0.0815 
    110 H110       32.4112   28.7662    4.1080 H         1 UNK         0.2987 
    111 H111       33.3938   27.9595    1.4981 H         1 UNK         0.0949 
    112 H112       35.6003   28.1473    2.5784 H         1 UNK         0.0806 
    113 H113       34.9039   28.9485    3.9737 H         1 UNK         0.0806 
    114 H114       34.5032   27.2681    3.6308 H         1 UNK         0.0806 
    115 H115       32.1651   29.7190    0.4753 H         1 UNK         0.3010 
    116 H116       32.0269   31.4711   -0.8498 H         1 UNK         0.0829 
    117 H117       34.3955   31.2035   -1.5119 H         1 UNK         0.0813 
    118 H118       33.9586   32.9027   -1.4455 H         1 UNK         0.0813 
    119 H119       34.9247   32.2003   -0.1599 H         1 UNK         0.0813 
    120 H120       33.8725   32.5834    1.9911 H         1 UNK         0.3038 
    121 H121       32.0017   34.8775    2.4122 H         1 UNK         0.0769 
    122 H122       34.3856   35.4703    2.4911 H         1 UNK         0.0811 
    123 H123       33.7051   35.5984    4.1041 H         1 UNK         0.0811 
    124 H124       34.7168   34.2213    3.6856 H         1 UNK         0.0811 
    125 H125       33.6536   32.3603    4.4225 H         1 UNK         0.3204 
    126 H126       31.2982   31.2802    5.5783 H         1 UNK         0.0748 
    127 H127       31.2906   33.4119    6.9157 H         1 UNK         0.0771 
    128 H128       31.7523   32.0685    7.9407 H         1 UNK         0.0771 
    129 H129       32.9837   33.1717    7.3389 H         1 UNK         0.0771 
    130 H130       31.9189   29.5202    7.0407 H         1 UNK         0.2980 
    131 H131       34.3823   28.2422    6.2450 H         1 UNK         0.0545 
    132 H132       35.2492   30.0068    9.7672 H         1 UNK         0.3459 
    133 H133       33.8526   30.4861    8.8369 H         1 UNK         0.3459 
    134 H134       33.5799   26.3421    7.6585 H         1 UNK         0.0616 
    135 H135       32.2623   27.3237    8.2413 H         1 UNK         0.0616 
    136 H136       32.7387   24.4398    6.3023 H         1 UNK         0.0634 
    137 H137       33.7557   25.3423    5.2033 H         1 UNK         0.0634 
@<TRIPOS>BOND
     1    1    2 1    
     2    1   72 1    
     3    1   73 1    
     4    1   74 1    
     5    2    3 2    
     6    2    4 am   BACKBONE|DICT|INTERRES
     7    4    5 1    
     8    4   75 1    
     9    5    6 1    
    10    5   35 1    
    11    5   76 1    
    12    6    7 1    
    13    6   77 1    
    14    6   78 1    
    15    7    8 1    
    16    8    9 1    
    17    8   79 1    
    18    8   80 1    
    19    9   10 ar   
    20    9   14 ar   
    21   10   11 ar   
    22   10   81 1    
    23   11   12 ar   
    24   11   71 1    
    25   12   13 ar   
    26   12   82 1    
    27   13   14 ar   
    28   13   15 1    
    29   14   83 1    
    30   15   16 1    
    31   15   84 1    
    32   15   85 1    
    33   16   17 1    
    34   17   18 1    
    35   17   86 1    
    36   17   87 1    
    37   18   19 1    
    38   18   37 1    
    39   18   88 1    
    40   19   20 am   BACKBONE|DICT|INTERRES
    41   19   89 1    
    42   20   21 2    
    43   20   22 1    
    44   22   23 1    
    45   22   24 1    
    46   22   90 1    
    47   23   91 1    
    48   23   92 1    
    49   23   93 1    
    50   24   25 am   BACKBONE|DICT|INTERRES
    51   24   94 1    
    52   25   26 2    
    53   25   27 1    
    54   27   28 1    
    55   27   29 1    
    56   27   95 1    
    57   28   96 1    
    58   28   97 1    
    59   28   98 1    
    60   29   30 am   BACKBONE|DICT|INTERRES
    61   29   99 1    
    62   30   31 2    
    63   30   32 1    
    64   32   33 1    
    65   32   34 1    
    66   32  100 1    
    67   33  101 1    
    68   33  102 1    
    69   33  103 1    
    70   34   35 am   BACKBONE|DICT|INTERRES
    71   34  104 1    
    72   35   36 2    
    73   37   38 2    
    74   37   39 am   BACKBONE|DICT|INTERRES
    75   39   40 1    
    76   39  105 1    
    77   40   41 1    
    78   40   42 1    
    79   40  106 1    
    80   41  107 1    
    81   41  108 1    
    82   41  109 1    
    83   42   43 2    
    84   42   44 am   BACKBONE|DICT|INTERRES
    85   44   45 1    
    86   44  110 1    
    87   45   46 1    
    88   45   47 1    
    89   45  111 1    
    90   46  112 1    
    91   46  113 1    
    92   46  114 1    
    93   47   48 2    
    94   47   49 am   BACKBONE|DICT|INTERRES
    95   49   50 1    
    96   49  115 1    
    97   50   51 1    
    98   50   52 1    
    99   50  116 1    
   100   51  117 1    
   101   51  118 1    
   102   51  119 1    
   103   52   53 2    
   104   52   54 am   BACKBONE|DICT|INTERRES
   105   54   55 1    
   106   54  120 1    
   107   55   56 1    
   108   55   57 1    
   109   55  121 1    
   110   56  122 1    
   111   56  123 1    
   112   56  124 1    
   113   57   58 2    
   114   57   59 am   BACKBONE|DICT|INTERRES
   115   59   60 1    
   116   59  125 1    
   117   60   61 1    
   118   60   62 1    
   119   60  126 1    
   120   61  127 1    
   121   61  128 1    
   122   61  129 1    
   123   62   63 2    
   124   62   64 am   BACKBONE|DICT|INTERRES
   125   64   65 1    
   126   64  130 1    
   127   65   66 1    
   128   65   69 1    
   129   65  131 1    
   130   66   67 am   BACKBONE|DICT|INTERRES
   131   66   68 2    
   132   67  132 1    
   133   67  133 1    
   134   69   70 1    
   135   69  134 1    
   136   69  135 1    
   137   70   71 1    
   138   71  136 1    
   139   71  137 1    
@<TRIPOS>SUBSTRUCTURE
     1 UNK         1 GROUP             0       ****    0 ROOT    
