@<TRIPOS>MOLECULE
3R136
137   139    1
SMALL
USER_CHARGES


@<TRIPOS>ATOM
      1 CA         30.4150   24.0625    5.7146 C.3       0 UNK        -0.1979 
      2 C          29.5917   22.9754    5.0387 C.2       0 UNK         0.4864 
      3 O          29.8464   21.7900    5.2553 O.2       0 UNK        -0.5359 
      4 N          28.6076   23.3733    4.2280 N.am      1 UNK        -0.4318 
      5 CA         27.6952   22.5120    3.4772 C.3       1 UNK         0.0824 
      6 C6         28.3903   21.7016    2.3428 C.3       12 UNK        -0.0944 
      7 S7         29.1919   22.7479    1.0806 S.3       12 UNK        -0.2672 
      8 C8         30.9568   22.4000    1.3721 C.3       12 UNK         0.0333 
      9 C9         31.8422   23.5421    0.8912 C.ar      12 UNK        -0.0807 
     10 C10        32.7225   24.1699    1.7775 C.ar      12 UNK        -0.0894 
     11 C11        33.5217   25.2362    1.3535 C.ar      12 UNK        -0.0804 
     12 C12        33.4283   25.6849    0.0308 C.ar      12 UNK        -0.0824 
     13 C13        32.5605   25.0559   -0.8692 C.ar      12 UNK        -0.0762 
     14 C14        31.7799   23.9805   -0.4348 C.ar      12 UNK        -0.0782 
     15 C15        32.4856   25.4952   -2.3242 C.3       12 UNK         0.0230 
     16 S16        30.8922   26.2852   -2.7232 S.3       12 UNK        -0.2608 
     17 C17        31.2656   28.0635   -2.5268 C.3       12 UNK        -0.0989 
     18 CA         30.2776   28.8295   -1.6102 C.3       5 UNK         0.0716 
     19 N          28.8792   28.5869   -1.9724 N.am      5 UNK        -0.4135 
     20 C          27.8453   29.3557   -1.6079 C.2       4 UNK         0.5031 
     21 O          27.9690   30.4151   -0.9938 O.2       4 UNK        -0.5229 
     22 CA         26.4345   28.8356   -1.9410 C.3       4 UNK         0.0329 
     23 CB         25.9284   29.4604   -3.2507 C.3       4 UNK        -0.2001 
     24 N          26.3338   27.3719   -2.0278 N.am      4 UNK        -0.4303 
     25 C          26.5948   26.5220   -1.0242 C.2       3 UNK         0.5044 
     26 O          27.0098   26.8759    0.0808 O.2       3 UNK        -0.5152 
     27 CA         26.4303   25.0257   -1.3373 C.3       3 UNK         0.0319 
     28 CB         27.7580   24.4464   -1.8508 C.3       3 UNK        -0.2001 
     29 N          25.9897   24.2596   -0.1683 N.am      3 UNK        -0.4354 
     30 C          24.7731   24.3572    0.3895 C.2       2 UNK         0.4964 
     31 O          23.8875   25.0959   -0.0449 O.2       2 UNK        -0.5047 
     32 CA         24.4548   23.4642    1.6069 C.3       2 UNK         0.0288 
     33 CB         23.4114   22.3969    1.2323 C.3       2 UNK        -0.2113 
     34 N          25.6223   22.7927    2.1865 N.am      2 UNK        -0.4145 
     35 C          26.5217   23.3844    2.9837 C.2       1 UNK         0.5006 
     36 O          26.4491   24.5679    3.3279 O.2       1 UNK        -0.5103 
     37 C          30.5788   28.6037   -0.1122 C.2       5 UNK         0.5055 
     38 O          31.6327   29.0501    0.3367 O.2       5 UNK        -0.5220 
     39 N          29.6693   27.9618    0.6348 N.am      6 UNK        -0.4450 
     40 CA         29.7811   27.7042    2.0706 C.3       6 UNK         0.0367 
     41 CB         29.6597   26.1917    2.3011 C.3       6 UNK        -0.1929 
     42 C          28.7178   28.4794    2.8696 C.2       6 UNK         0.5070 
     43 O          28.3903   28.0791    3.9874 O.2       6 UNK        -0.5237 
     44 N          28.1891   29.5756    2.3011 N.am      7 UNK        -0.4739 
     45 CA         27.1702   30.4342    2.9218 C.3       7 UNK         0.0276 
     46 CB         26.6121   31.4020    1.8664 C.3       7 UNK        -0.1927 
     47 C          27.6608   31.2092    4.1615 C.2       7 UNK         0.5013 
     48 O          26.8329   31.6519    4.9591 O.2       7 UNK        -0.5193 
     49 N          28.9827   31.3475    4.3065 N.am      8 UNK        -0.4253 
     50 CA         29.6679   31.8417    5.4963 C.3       8 UNK         0.0242 
     51 CB         30.4273   33.1316    5.1438 C.3       8 UNK        -0.2000 
     52 C          30.6455   30.7512    5.9458 C.2       8 UNK         0.4948 
     53 O          31.1636   30.0227    5.0967 O.2       8 UNK        -0.5275 
     54 N          30.9179   30.6802    7.2558 N.am      9 UNK        -0.4246 
     55 CA         31.7705   29.6596    7.8843 C.3       9 UNK         0.0261 
     56 CB         31.7203   29.8278    9.4119 C.3       9 UNK        -0.1959 
     57 C          33.2317   29.6423    7.3941 C.2       9 UNK         0.5033 
     58 O          33.8678   28.5886    7.4346 O.2       9 UNK        -0.5390 
     59 N          33.7306   30.7961    6.9317 N.am      10 UNK        -0.4215 
     60 CA         35.0476   30.9472    6.3072 C.3       10 UNK         0.0240 
     61 CB         35.4901   32.4146    6.4417 C.3       10 UNK        -0.1982 
     62 C          35.0811   30.5091    4.8280 C.2       10 UNK         0.4970 
     63 O          36.1761   30.4006    4.2738 O.2       10 UNK        -0.4916 
     64 N          33.9053   30.2879    4.2216 N.am      11 UNK        -0.4279 
     65 CA         33.6647   29.9946    2.7998 C.3       11 UNK         0.1003 
     66 C          33.9859   31.1843    1.8479 C.2       11 UNK         0.5709 
     67 N          33.5184   31.1131    0.6107 N.am      11 UNK        -0.7358 
     68 O          34.6241   32.1730    2.2052 O.2       11 UNK        -0.4999 
     69 C69        34.3133   28.6646    2.3188 C.3       12 UNK        -0.0954 
     70 S70        33.7566   27.2200    3.2813 S.3       12 UNK        -0.2268 
     71 C71        34.5082   25.8681    2.3255 C.3       12 UNK         0.0203 
     72 H72        29.9367   25.0392    5.6411 H         1 UNK         0.0888 
     73 H73        30.5478   23.8334    6.7716 H         1 UNK         0.0888 
     74 H74        31.3998   24.1287    5.2526 H         1 UNK         0.0888 
     75 H75        28.3895   24.3570    4.1187 H         1 UNK         0.3017 
     76 H76        27.2650   21.8022    4.1868 H         1 UNK         0.0873 
     77 H77        27.6777   21.0476    1.8388 H         1 UNK         0.0745 
     78 H78        29.1269   21.0219    2.7727 H         1 UNK         0.0745 
     79 H79        31.1187   22.2236    2.4364 H         1 UNK         0.0705 
     80 H80        31.2337   21.4796    0.8565 H         1 UNK         0.0705 
     81 H81        32.7865   23.8319    2.8028 H         1 UNK         0.1334 
     82 H82        34.0431   26.5105   -0.3002 H         1 UNK         0.1417 
     83 H83        31.1060   23.4946   -1.1276 H         1 UNK         0.1562 
     84 H84        32.5992   24.6154   -2.9591 H         1 UNK         0.0748 
     85 H85        33.3148   26.1553   -2.5824 H         1 UNK         0.0748 
     86 H86        32.2929   28.2008   -2.1833 H         1 UNK         0.0940 
     87 H87        31.2391   28.5068   -3.5235 H         1 UNK         0.0940 
     88 H88        30.4628   29.8930   -1.7779 H         1 UNK         0.0703 
     89 H89        28.6982   27.7276   -2.4706 H         1 UNK         0.3081 
     90 H90        25.7759   29.1588   -1.1320 H         1 UNK         0.0719 
     91 H91        26.5288   29.1489   -4.1065 H         1 UNK         0.0809 
     92 H92        24.8919   29.1857   -3.4481 H         1 UNK         0.0809 
     93 H93        25.9683   30.5498   -3.2042 H         1 UNK         0.0809 
     94 H94        26.0140   26.9952   -2.9091 H         1 UNK         0.2990 
     95 H95        25.6748   24.9081   -2.1172 H         1 UNK         0.0690 
     96 H96        27.6876   23.3726   -2.0255 H         1 UNK         0.0788 
     97 H97        28.5724   24.6201   -1.1459 H         1 UNK         0.0788 
     98 H98        28.0460   24.9082   -2.7958 H         1 UNK         0.0788 
     99 H99        26.6786   23.6657    0.2698 H         1 UNK         0.2993 
    100 H100       24.0165   24.1133    2.3686 H         1 UNK         0.0949 
    101 H101       23.7880   21.7142    0.4695 H         1 UNK         0.0767 
    102 H102       23.1192   21.8050    2.1001 H         1 UNK         0.0767 
    103 H103       22.5039   22.8568    0.8381 H         1 UNK         0.0767 
    104 H104       25.7452   21.8194    1.9468 H         1 UNK         0.3013 
    105 H105       28.8019   27.6415    0.2119 H         1 UNK         0.3121 
    106 H106       30.7562   28.0249    2.4431 H         1 UNK         0.0774 
    107 H107       29.9021   25.9329    3.3309 H         1 UNK         0.0815 
    108 H108       28.6530   25.8293    2.0894 H         1 UNK         0.0815 
    109 H109       30.3478   25.6489    1.6586 H         1 UNK         0.0815 
    110 H110       28.4895   29.8285    1.3688 H         1 UNK         0.2987 
    111 H111       26.3544   29.7893    3.2559 H         1 UNK         0.0949 
    112 H112       27.3937   32.0368    1.4471 H         1 UNK         0.0806 
    113 H113       26.1413   30.8620    1.0448 H         1 UNK         0.0806 
    114 H114       25.8531   32.0574    2.2959 H         1 UNK         0.0806 
    115 H115       29.5794   30.8691    3.6451 H         1 UNK         0.3010 
    116 H116       28.9573   32.0403    6.3016 H         1 UNK         0.0829 
    117 H117       29.7459   33.9042    4.7871 H         1 UNK         0.0813 
    118 H118       30.9444   33.5342    6.0156 H         1 UNK         0.0813 
    119 H119       31.1753   32.9628    4.3674 H         1 UNK         0.0813 
    120 H120       30.4640   31.3315    7.8811 H         1 UNK         0.3038 
    121 H121       31.3426   28.6858    7.6359 H         1 UNK         0.0769 
    122 H122       32.1031   30.8002    9.7244 H         1 UNK         0.0811 
    123 H123       32.3230   29.0660    9.9087 H         1 UNK         0.0811 
    124 H124       30.7027   29.7283    9.7903 H         1 UNK         0.0811 
    125 H125       33.1390   31.6138    6.9548 H         1 UNK         0.3204 
    126 H126       35.7655   30.3250    6.8462 H         1 UNK         0.0748 
    127 H127       36.4889   32.5613    6.0280 H         1 UNK         0.0771 
    128 H128       34.8169   33.0897    5.9115 H         1 UNK         0.0771 
    129 H129       35.5262   32.7252    7.4862 H         1 UNK         0.0771 
    130 H130       33.0547   30.3457    4.7708 H         1 UNK         0.2980 
    131 H131       32.5834   29.8681    2.7375 H         1 UNK         0.0545 
    132 H132       33.6962   31.8631   -0.0373 H         1 UNK         0.3459 
    133 H133       32.9171   30.3333    0.3504 H         1 UNK         0.3459 
    134 H134       35.4013   28.7225    2.3679 H         1 UNK         0.0616 
    135 H135       34.0672   28.4757    1.2733 H         1 UNK         0.0616 
    136 H136       34.8680   25.1118    3.0247 H         1 UNK         0.0634 
    137 H137       35.3911   26.2268    1.7943 H         1 UNK         0.0634 
@<TRIPOS>BOND
     1    1    2 1    
     2    1   72 1    
     3    1   73 1    
     4    1   74 1    
     5    2    3 2    
     6    2    4 am   BACKBONE|DICT|INTERRES
     7    4    5 1    
     8    4   75 1    
     9    5    6 1    
    10    5   35 1    
    11    5   76 1    
    12    6    7 1    
    13    6   77 1    
    14    6   78 1    
    15    7    8 1    
    16    8    9 1    
    17    8   79 1    
    18    8   80 1    
    19    9   10 ar   
    20    9   14 ar   
    21   10   11 ar   
    22   10   81 1    
    23   11   12 ar   
    24   11   71 1    
    25   12   13 ar   
    26   12   82 1    
    27   13   14 ar   
    28   13   15 1    
    29   14   83 1    
    30   15   16 1    
    31   15   84 1    
    32   15   85 1    
    33   16   17 1    
    34   17   18 1    
    35   17   86 1    
    36   17   87 1    
    37   18   19 1    
    38   18   37 1    
    39   18   88 1    
    40   19   20 am   BACKBONE|DICT|INTERRES
    41   19   89 1    
    42   20   21 2    
    43   20   22 1    
    44   22   23 1    
    45   22   24 1    
    46   22   90 1    
    47   23   91 1    
    48   23   92 1    
    49   23   93 1    
    50   24   25 am   BACKBONE|DICT|INTERRES
    51   24   94 1    
    52   25   26 2    
    53   25   27 1    
    54   27   28 1    
    55   27   29 1    
    56   27   95 1    
    57   28   96 1    
    58   28   97 1    
    59   28   98 1    
    60   29   30 am   BACKBONE|DICT|INTERRES
    61   29   99 1    
    62   30   31 2    
    63   30   32 1    
    64   32   33 1    
    65   32   34 1    
    66   32  100 1    
    67   33  101 1    
    68   33  102 1    
    69   33  103 1    
    70   34   35 am   BACKBONE|DICT|INTERRES
    71   34  104 1    
    72   35   36 2    
    73   37   38 2    
    74   37   39 am   BACKBONE|DICT|INTERRES
    75   39   40 1    
    76   39  105 1    
    77   40   41 1    
    78   40   42 1    
    79   40  106 1    
    80   41  107 1    
    81   41  108 1    
    82   41  109 1    
    83   42   43 2    
    84   42   44 am   BACKBONE|DICT|INTERRES
    85   44   45 1    
    86   44  110 1    
    87   45   46 1    
    88   45   47 1    
    89   45  111 1    
    90   46  112 1    
    91   46  113 1    
    92   46  114 1    
    93   47   48 2    
    94   47   49 am   BACKBONE|DICT|INTERRES
    95   49   50 1    
    96   49  115 1    
    97   50   51 1    
    98   50   52 1    
    99   50  116 1    
   100   51  117 1    
   101   51  118 1    
   102   51  119 1    
   103   52   53 2    
   104   52   54 am   BACKBONE|DICT|INTERRES
   105   54   55 1    
   106   54  120 1    
   107   55   56 1    
   108   55   57 1    
   109   55  121 1    
   110   56  122 1    
   111   56  123 1    
   112   56  124 1    
   113   57   58 2    
   114   57   59 am   BACKBONE|DICT|INTERRES
   115   59   60 1    
   116   59  125 1    
   117   60   61 1    
   118   60   62 1    
   119   60  126 1    
   120   61  127 1    
   121   61  128 1    
   122   61  129 1    
   123   62   63 2    
   124   62   64 am   BACKBONE|DICT|INTERRES
   125   64   65 1    
   126   64  130 1    
   127   65   66 1    
   128   65   69 1    
   129   65  131 1    
   130   66   67 am   BACKBONE|DICT|INTERRES
   131   66   68 2    
   132   67  132 1    
   133   67  133 1    
   134   69   70 1    
   135   69  134 1    
   136   69  135 1    
   137   70   71 1    
   138   71  136 1    
   139   71  137 1    
@<TRIPOS>SUBSTRUCTURE
     1 UNK         1 GROUP             0       ****    0 ROOT    
