@<TRIPOS>MOLECULE
3R136
137   139    1
SMALL
USER_CHARGES


@<TRIPOS>ATOM
      1 CA         29.4586   19.5063   -3.8856 C.3       0 UNK        -0.1979 
      2 C          30.2673   20.1366   -2.7612 C.2       0 UNK         0.4864 
      3 O          31.1277   20.9770   -3.0261 O.2       0 UNK        -0.5359 
      4 N          30.0044   19.7276   -1.5121 N.am      1 UNK        -0.4318 
      5 CA         30.6442   20.2584   -0.3028 C.3       1 UNK         0.0824 
      6 C6         30.3881   19.3342    0.9151 C.3       12 UNK        -0.0944 
      7 S7         31.6057   19.5515    2.2559 S.3       12 UNK        -0.2672 
      8 C8         30.5854   20.1763    3.6350 C.3       12 UNK         0.0333 
      9 C9         30.6404   21.6936    3.7727 C.ar      12 UNK        -0.0807 
     10 C10        31.8512   22.3145    4.0961 C.ar      12 UNK        -0.0894 
     11 C11        31.9121   23.6956    4.2958 C.ar      12 UNK        -0.0804 
     12 C12        30.7483   24.4593    4.1773 C.ar      12 UNK        -0.0824 
     13 C13        29.5274   23.8555    3.8588 C.ar      12 UNK        -0.0762 
     14 C14        29.4815   22.4705    3.6502 C.ar      12 UNK        -0.0782 
     15 C15        28.2525   24.6920    3.8169 C.3       12 UNK         0.0230 
     16 S16        28.3791   26.1212    2.6864 S.3       12 UNK        -0.2608 
     17 C17        27.4913   27.4008    3.6392 C.3       12 UNK        -0.0989 
     18 CA         27.8094   28.8294    3.1356 C.3       5 UNK         0.0716 
     19 N          27.3317   29.0478    1.7686 N.am      5 UNK        -0.4135 
     20 C          27.5118   30.1455    1.0238 C.2       4 UNK         0.5031 
     21 O          28.0599   31.1691    1.4401 O.2       4 UNK        -0.5229 
     22 CA         27.0670   30.0610   -0.4526 C.3       4 UNK         0.0329 
     23 CB         27.4194   31.3349   -1.2443 C.3       4 UNK        -0.2001 
     24 N          27.6678   28.9086   -1.1352 N.am      4 UNK        -0.4303 
     25 C          27.2909   27.6331   -0.9797 C.2       3 UNK         0.5044 
     26 O          26.3258   27.3002   -0.2866 O.2       3 UNK        -0.5152 
     27 CA         28.1517   26.5442   -1.6391 C.3       3 UNK         0.0319 
     28 CB         29.5646   27.0091   -2.0522 C.3       3 UNK        -0.2001 
     29 N          28.2528   25.4456   -0.6852 N.am      3 UNK        -0.4354 
     30 C          28.3046   24.1453   -0.9771 C.2       2 UNK         0.4964 
     31 O          28.3423   23.6868   -2.1216 O.2       2 UNK        -0.5047 
     32 CA         28.2434   23.2072    0.2363 C.3       2 UNK         0.0288 
     33 CB         26.7863   22.9739    0.6699 C.3       2 UNK        -0.2113 
     34 N          28.8720   21.9181   -0.0317 N.am      2 UNK        -0.4145 
     35 C          30.1950   21.7053   -0.0190 C.2       1 UNK         0.5006 
     36 O          31.0349   22.5805    0.1984 O.2       1 UNK        -0.5103 
     37 C          27.2542   29.8936    4.0996 C.2       5 UNK         0.5055 
     38 O          26.0352   30.0056    4.2404 O.2       5 UNK        -0.5220 
     39 N          28.1652   30.6662    4.7068 N.am      6 UNK        -0.4450 
     40 CA         27.9596   31.7980    5.6208 C.3       6 UNK         0.0367 
     41 CB         27.0911   31.4105    6.8351 C.3       6 UNK        -0.1929 
     42 C          27.4498   33.0850    4.9439 C.2       6 UNK         0.5070 
     43 O          27.5575   34.1521    5.5492 O.2       6 UNK        -0.5237 
     44 N          26.9370   32.9919    3.7103 N.am      7 UNK        -0.4739 
     45 CA         26.5510   34.1353    2.8830 C.3       7 UNK         0.0276 
     46 CB         25.4977   33.6931    1.8548 C.3       7 UNK        -0.1927 
     47 C          27.7702   34.7621    2.1884 C.2       7 UNK         0.5013 
     48 O          27.8400   35.9873    2.0826 O.2       7 UNK        -0.5193 
     49 N          28.7104   33.9161    1.7483 N.am      8 UNK        -0.4253 
     50 CA         29.9704   34.3150    1.1207 C.3       8 UNK         0.0242 
     51 CB         29.7553   34.6108   -0.3750 C.3       8 UNK        -0.2000 
     52 C          31.0806   33.2722    1.3189 C.2       8 UNK         0.4948 
     53 O          32.2386   33.6642    1.4706 O.2       8 UNK        -0.5275 
     54 N          30.7333   31.9778    1.3079 N.am      9 UNK        -0.4246 
     55 CA         31.6683   30.8711    1.5117 C.3       9 UNK         0.0261 
     56 CB         31.2049   29.6577    0.6865 C.3       9 UNK        -0.1959 
     57 C          31.7516   30.5035    2.9995 C.2       9 UNK         0.5033 
     58 O          30.7774   30.6776    3.7366 O.2       9 UNK        -0.5390 
     59 N          32.8994   29.9543    3.4004 N.am      10 UNK        -0.4215 
     60 CA         33.1800   29.4358    4.7348 C.3       10 UNK         0.0240 
     61 CB         33.5746   30.5869    5.6791 C.3       10 UNK        -0.1982 
     62 C          34.3029   28.3997    4.6128 C.2       10 UNK         0.4970 
     63 O          35.0136   28.3878    3.6034 O.2       10 UNK        -0.4916 
     64 N          34.4429   27.5530    5.6378 N.am      11 UNK        -0.4279 
     65 CA         35.4403   26.4700    5.6885 C.3       11 UNK         0.1003 
     66 C          36.8968   26.9346    5.9857 C.2       11 UNK         0.5709 
     67 N          37.1367   28.1877    6.3538 N.am      11 UNK        -0.7358 
     68 O          37.8288   26.1419    5.8714 O.2       11 UNK        -0.4999 
     69 C69        35.0121   25.3312    6.6552 C.3       12 UNK        -0.0954 
     70 S70        33.3033   24.7200    6.4413 S.3       12 UNK        -0.2268 
     71 C71        33.2287   24.3626    4.6587 C.3       12 UNK         0.0203 
     72 H72        28.8972   20.2738   -4.4179 H         1 UNK         0.0888 
     73 H73        30.1227   19.0148   -4.5961 H         1 UNK         0.0888 
     74 H74        28.7511   18.7649   -3.5147 H         1 UNK         0.0888 
     75 H75        29.2997   19.0186   -1.3656 H         1 UNK         0.3017 
     76 H76        31.7197   20.2807   -0.4940 H         1 UNK         0.0873 
     77 H77        29.3699   19.4416    1.2929 H         1 UNK         0.0745 
     78 H78        30.4716   18.2914    0.6042 H         1 UNK         0.0745 
     79 H79        30.9618   19.7371    4.5600 H         1 UNK         0.0705 
     80 H80        29.5575   19.8245    3.5396 H         1 UNK         0.0705 
     81 H81        32.7455   21.7158    4.2045 H         1 UNK         0.1334 
     82 H82        30.7895   25.5258    4.3530 H         1 UNK         0.1417 
     83 H83        28.5385   21.9925    3.4225 H         1 UNK         0.1562 
     84 H84        28.0416   25.0286    4.8324 H         1 UNK         0.0748 
     85 H85        27.3969   24.0864    3.5145 H         1 UNK         0.0748 
     86 H86        27.7783   27.3072    4.6886 H         1 UNK         0.0940 
     87 H87        26.4189   27.2002    3.5938 H         1 UNK         0.0940 
     88 H88        28.8953   28.9321    3.1064 H         1 UNK         0.0703 
     89 H89        26.8662   28.2615    1.3266 H         1 UNK         0.3081 
     90 H90        25.9805   29.9510   -0.4571 H         1 UNK         0.0719 
     91 H91        28.4974   31.4936   -1.2895 H         1 UNK         0.0809 
     92 H92        27.0461   31.2813   -2.2671 H         1 UNK         0.0809 
     93 H93        26.9779   32.2218   -0.7892 H         1 UNK         0.0809 
     94 H94        28.4852   29.0971   -1.6970 H         1 UNK         0.2990 
     95 H95        27.6126   26.2082   -2.5273 H         1 UNK         0.0690 
     96 H96        30.1415   26.1818   -2.4664 H         1 UNK         0.0788 
     97 H97        30.1250   27.4062   -1.2046 H         1 UNK         0.0788 
     98 H98        29.5243   27.7794   -2.8231 H         1 UNK         0.0788 
     99 H99        28.1499   25.7177    0.2855 H         1 UNK         0.2993 
    100 H100       28.7836   23.6790    1.0585 H         1 UNK         0.0949 
    101 H101       26.1987   22.5104   -0.1237 H         1 UNK         0.0767 
    102 H102       26.7303   22.3316    1.5488 H         1 UNK         0.0767 
    103 H103       26.2997   23.9158    0.9280 H         1 UNK         0.0767 
    104 H104       28.2592   21.1591   -0.2886 H         1 UNK         0.3013 
    105 H105       29.1401   30.5474    4.4205 H         1 UNK         0.3121 
    106 H106       28.9550   32.0379    5.9983 H         1 UNK         0.0774 
    107 H107       27.0825   32.2117    7.5752 H         1 UNK         0.0815 
    108 H108       26.0543   31.2241    6.5545 H         1 UNK         0.0815 
    109 H109       27.4735   30.5176    7.3293 H         1 UNK         0.0815 
    110 H110       26.8949   32.0779    3.2791 H         1 UNK         0.2987 
    111 H111       26.1008   34.9005    3.5197 H         1 UNK         0.0949 
    112 H112       25.2010   34.5267    1.2167 H         1 UNK         0.0806 
    113 H113       25.8700   32.9011    1.2060 H         1 UNK         0.0806 
    114 H114       24.5971   33.3250    2.3465 H         1 UNK         0.0806 
    115 H115       28.5424   32.9195    1.8572 H         1 UNK         0.3010 
    116 H116       30.3182   35.2310    1.6040 H         1 UNK         0.0829 
    117 H117       29.0540   35.4323   -0.5217 H         1 UNK         0.0813 
    118 H118       30.6919   34.8968   -0.8556 H         1 UNK         0.0813 
    119 H119       29.3675   33.7413   -0.9053 H         1 UNK         0.0813 
    120 H120       29.7522   31.7172    1.2500 H         1 UNK         0.3038 
    121 H121       32.6608   31.1639    1.1618 H         1 UNK         0.0769 
    122 H122       30.2667   29.2461    1.0564 H         1 UNK         0.0811 
    123 H123       31.9429   28.8555    0.7256 H         1 UNK         0.0811 
    124 H124       31.0676   29.9189   -0.3629 H         1 UNK         0.0811 
    125 H125       33.6421   29.7784    2.7334 H         1 UNK         0.3204 
    126 H126       32.2893   28.9326    5.1178 H         1 UNK         0.0748 
    127 H127       33.7868   30.2197    6.6839 H         1 UNK         0.0771 
    128 H128       34.4638   31.1103    5.3253 H         1 UNK         0.0771 
    129 H129       32.7712   31.3186    5.7687 H         1 UNK         0.0771 
    130 H130       33.8299   27.6277    6.4362 H         1 UNK         0.2980 
    131 H131       35.4928   26.0358    4.6888 H         1 UNK         0.0545 
    132 H132       38.0852   28.4744    6.5382 H         1 UNK         0.3459 
    133 H133       36.3818   28.8470    6.4485 H         1 UNK         0.3459 
    134 H134       35.1080   25.6641    7.6904 H         1 UNK         0.0616 
    135 H135       35.6826   24.4762    6.5506 H         1 UNK         0.0616 
    136 H136       33.3288   25.2881    4.0905 H         1 UNK         0.0634 
    137 H137       34.0716   23.7283    4.3796 H         1 UNK         0.0634 
@<TRIPOS>BOND
     1    1    2 1    
     2    1   72 1    
     3    1   73 1    
     4    1   74 1    
     5    2    3 2    
     6    2    4 am   BACKBONE|DICT|INTERRES
     7    4    5 1    
     8    4   75 1    
     9    5    6 1    
    10    5   35 1    
    11    5   76 1    
    12    6    7 1    
    13    6   77 1    
    14    6   78 1    
    15    7    8 1    
    16    8    9 1    
    17    8   79 1    
    18    8   80 1    
    19    9   10 ar   
    20    9   14 ar   
    21   10   11 ar   
    22   10   81 1    
    23   11   12 ar   
    24   11   71 1    
    25   12   13 ar   
    26   12   82 1    
    27   13   14 ar   
    28   13   15 1    
    29   14   83 1    
    30   15   16 1    
    31   15   84 1    
    32   15   85 1    
    33   16   17 1    
    34   17   18 1    
    35   17   86 1    
    36   17   87 1    
    37   18   19 1    
    38   18   37 1    
    39   18   88 1    
    40   19   20 am   BACKBONE|DICT|INTERRES
    41   19   89 1    
    42   20   21 2    
    43   20   22 1    
    44   22   23 1    
    45   22   24 1    
    46   22   90 1    
    47   23   91 1    
    48   23   92 1    
    49   23   93 1    
    50   24   25 am   BACKBONE|DICT|INTERRES
    51   24   94 1    
    52   25   26 2    
    53   25   27 1    
    54   27   28 1    
    55   27   29 1    
    56   27   95 1    
    57   28   96 1    
    58   28   97 1    
    59   28   98 1    
    60   29   30 am   BACKBONE|DICT|INTERRES
    61   29   99 1    
    62   30   31 2    
    63   30   32 1    
    64   32   33 1    
    65   32   34 1    
    66   32  100 1    
    67   33  101 1    
    68   33  102 1    
    69   33  103 1    
    70   34   35 am   BACKBONE|DICT|INTERRES
    71   34  104 1    
    72   35   36 2    
    73   37   38 2    
    74   37   39 am   BACKBONE|DICT|INTERRES
    75   39   40 1    
    76   39  105 1    
    77   40   41 1    
    78   40   42 1    
    79   40  106 1    
    80   41  107 1    
    81   41  108 1    
    82   41  109 1    
    83   42   43 2    
    84   42   44 am   BACKBONE|DICT|INTERRES
    85   44   45 1    
    86   44  110 1    
    87   45   46 1    
    88   45   47 1    
    89   45  111 1    
    90   46  112 1    
    91   46  113 1    
    92   46  114 1    
    93   47   48 2    
    94   47   49 am   BACKBONE|DICT|INTERRES
    95   49   50 1    
    96   49  115 1    
    97   50   51 1    
    98   50   52 1    
    99   50  116 1    
   100   51  117 1    
   101   51  118 1    
   102   51  119 1    
   103   52   53 2    
   104   52   54 am   BACKBONE|DICT|INTERRES
   105   54   55 1    
   106   54  120 1    
   107   55   56 1    
   108   55   57 1    
   109   55  121 1    
   110   56  122 1    
   111   56  123 1    
   112   56  124 1    
   113   57   58 2    
   114   57   59 am   BACKBONE|DICT|INTERRES
   115   59   60 1    
   116   59  125 1    
   117   60   61 1    
   118   60   62 1    
   119   60  126 1    
   120   61  127 1    
   121   61  128 1    
   122   61  129 1    
   123   62   63 2    
   124   62   64 am   BACKBONE|DICT|INTERRES
   125   64   65 1    
   126   64  130 1    
   127   65   66 1    
   128   65   69 1    
   129   65  131 1    
   130   66   67 am   BACKBONE|DICT|INTERRES
   131   66   68 2    
   132   67  132 1    
   133   67  133 1    
   134   69   70 1    
   135   69  134 1    
   136   69  135 1    
   137   70   71 1    
   138   71  136 1    
   139   71  137 1    
@<TRIPOS>SUBSTRUCTURE
     1 UNK         1 GROUP             0       ****    0 ROOT    
