@<TRIPOS>MOLECULE
3R136
137   139    1
SMALL
USER_CHARGES


@<TRIPOS>ATOM
      1 CA         29.0811   26.0033    2.8599 C.3       0 UNK        -0.1979 
      2 C          28.7208   24.8602    1.9220 C.2       0 UNK         0.4864 
      3 O          28.3580   25.1142    0.7730 O.2       0 UNK        -0.5359 
      4 N          28.7986   23.6143    2.4175 N.am      1 UNK        -0.4318 
      5 CA         28.5325   22.3538    1.7051 C.3       1 UNK         0.0824 
      6 C6         29.6530   21.9806    0.6965 C.3       12 UNK        -0.0944 
      7 S7         31.1358   21.3749    1.5673 S.3       12 UNK        -0.2672 
      8 C8         32.4801   22.2622    0.7174 C.3       12 UNK         0.0333 
      9 C9         32.5990   23.7249    1.1290 C.ar      12 UNK        -0.0807 
     10 C10        32.6453   24.0871    2.4797 C.ar      12 UNK        -0.0894 
     11 C11        32.8138   25.4232    2.8528 C.ar      12 UNK        -0.0804 
     12 C12        32.9406   26.4046    1.8647 C.ar      12 UNK        -0.0824 
     13 C13        32.9116   26.0541    0.5109 C.ar      12 UNK        -0.0762 
     14 C14        32.7339   24.7146    0.1508 C.ar      12 UNK        -0.0782 
     15 C15        33.1184   27.1124   -0.5649 C.3       12 UNK         0.0230 
     16 S16        31.6542   27.3187   -1.6257 S.3       12 UNK        -0.2608 
     17 C17        30.4964   28.0704   -0.4413 C.3       12 UNK        -0.0989 
     18 CA         29.0922   28.2945   -1.0500 C.3       5 UNK         0.0716 
     19 N          28.4389   27.0287   -1.3683 N.am      5 UNK        -0.4135 
     20 C          27.8769   26.7048   -2.5368 C.2       4 UNK         0.5031 
     21 O          27.9687   27.3765   -3.5656 O.2       4 UNK        -0.5229 
     22 CA         27.0207   25.4274   -2.5364 C.3       4 UNK         0.0329 
     23 CB         27.9034   24.1796   -2.6971 C.3       4 UNK        -0.2001 
     24 N          26.2354   25.3261   -1.3033 N.am      4 UNK        -0.4303 
     25 C          25.1814   26.1060   -1.0183 C.2       3 UNK         0.5044 
     26 O          24.6528   26.8561   -1.8417 O.2       3 UNK        -0.5152 
     27 CA         24.6525   26.0722    0.4308 C.3       3 UNK         0.0319 
     28 CB         23.1970   26.5731    0.5555 C.3       3 UNK        -0.2001 
     29 N          24.8252   24.7760    1.0953 N.am      3 UNK        -0.4354 
     30 C          24.2594   23.6067    0.7603 C.2       2 UNK         0.4964 
     31 O          23.4677   23.4613   -0.1728 O.2       2 UNK        -0.5047 
     32 CA         24.6648   22.3996    1.6305 C.3       2 UNK         0.0288 
     33 CB         24.2246   21.0455    1.0314 C.3       2 UNK        -0.2113 
     34 N          26.0998   22.3888    1.9543 N.am      2 UNK        -0.4145 
     35 C          27.1201   22.3242    1.0829 C.2       1 UNK         0.5006 
     36 O          26.9788   22.2681   -0.1398 O.2       1 UNK        -0.5103 
     37 C          28.2060   29.0486   -0.0438 C.2       5 UNK         0.5055 
     38 O          27.3530   28.4443    0.6134 O.2       5 UNK        -0.5220 
     39 N          28.4561   30.3567    0.0977 N.am      6 UNK        -0.4450 
     40 CA         27.9131   31.1738    1.1843 C.3       6 UNK         0.0367 
     41 CB         28.2107   32.6554    0.9022 C.3       6 UNK        -0.1929 
     42 C          28.5294   30.7540    2.5289 C.2       6 UNK         0.5070 
     43 O          29.7095   30.4028    2.5712 O.2       6 UNK        -0.5237 
     44 N          27.7444   30.8389    3.6100 N.am      7 UNK        -0.4739 
     45 CA         28.1419   30.4202    4.9619 C.3       7 UNK         0.0276 
     46 CB         26.9315   30.5362    5.9024 C.3       7 UNK        -0.1927 
     47 C          29.3499   31.1788    5.5450 C.2       7 UNK         0.5013 
     48 O          30.0262   30.6432    6.4224 O.2       7 UNK        -0.5193 
     49 N          29.6021   32.3950    5.0450 N.am      8 UNK        -0.4253 
     50 CA         30.7336   33.2423    5.4207 C.3       8 UNK         0.0242 
     51 CB         30.3281   34.7134    5.2229 C.3       8 UNK        -0.2000 
     52 C          32.0298   32.9342    4.6446 C.2       8 UNK         0.4948 
     53 O          33.0677   33.4973    4.9974 O.2       8 UNK        -0.5275 
     54 N          31.9749   32.0970    3.5961 N.am      9 UNK        -0.4246 
     55 CA         33.1332   31.7528    2.7683 C.3       9 UNK         0.0261 
     56 CB         32.6560   31.1787    1.4225 C.3       9 UNK        -0.1959 
     57 C          34.0388   30.7570    3.5072 C.2       9 UNK         0.5033 
     58 O          33.6901   29.5774    3.5874 O.2       9 UNK        -0.5390 
     59 N          35.1628   31.2516    4.0478 N.am      10 UNK        -0.4215 
     60 CA         36.1720   30.5213    4.8268 C.3       10 UNK         0.0240 
     61 CB         36.9557   29.5400    3.9240 C.3       10 UNK        -0.1982 
     62 C          35.5542   29.8583    6.0728 C.2       10 UNK         0.4970 
     63 O          35.3698   30.5332    7.0864 O.2       10 UNK        -0.4916 
     64 N          35.2251   28.5674    5.9597 N.am      11 UNK        -0.4279 
     65 CA         34.4105   27.7954    6.9083 C.3       11 UNK         0.1003 
     66 C          32.9407   28.2880    7.0569 C.2       11 UNK         0.5709 
     67 N          32.3929   29.0362    6.1087 N.am      11 UNK        -0.7358 
     68 O          32.3010   28.0025    8.0663 O.2       11 UNK        -0.4999 
     69 C69        34.4885   26.2629    6.6351 C.3       12 UNK        -0.0954 
     70 S70        34.6269   25.7850    4.8746 S.3       12 UNK        -0.2268 
     71 C71        32.8963   25.8007    4.3228 C.3       12 UNK         0.0203 
     72 H72        28.3238   26.7856    2.8083 H         1 UNK         0.0888 
     73 H73        29.1586   25.6732    3.8953 H         1 UNK         0.0888 
     74 H74        30.0361   26.4386    2.5708 H         1 UNK         0.0888 
     75 H75        29.1026   23.4975    3.3738 H         1 UNK         0.3017 
     76 H76        28.5124   21.5739    2.4687 H         1 UNK         0.0873 
     77 H77        29.3357   21.1766    0.0297 H         1 UNK         0.0745 
     78 H78        29.8998   22.8294    0.0563 H         1 UNK         0.0745 
     79 H79        32.3409   22.1658   -0.3606 H         1 UNK         0.0705 
     80 H80        33.4225   21.7647    0.9499 H         1 UNK         0.0705 
     81 H81        32.5681   23.3244    3.2425 H         1 UNK         0.1334 
     82 H82        33.0873   27.4369    2.1538 H         1 UNK         0.1417 
     83 H83        32.7202   24.4450   -0.8966 H         1 UNK         0.1562 
     84 H84        33.9653   26.8222   -1.1881 H         1 UNK         0.0748 
     85 H85        33.3807   28.0752   -0.1226 H         1 UNK         0.0748 
     86 H86        30.9323   29.0135   -0.1081 H         1 UNK         0.0940 
     87 H87        30.4312   27.4330    0.4419 H         1 UNK         0.0940 
     88 H88        29.1841   28.9117   -1.9462 H         1 UNK         0.0703 
     89 H89        28.2903   26.4102   -0.5724 H         1 UNK         0.3081 
     90 H90        26.3352   25.4750   -3.3851 H         1 UNK         0.0719 
     91 H91        28.4971   24.2356   -3.6103 H         1 UNK         0.0809 
     92 H92        28.5960   24.0644   -1.8621 H         1 UNK         0.0809 
     93 H93        27.2998   23.2738   -2.7556 H         1 UNK         0.0809 
     94 H94        26.6351   24.7603   -0.5630 H         1 UNK         0.2990 
     95 H95        25.2803   26.7703    0.9857 H         1 UNK         0.0690 
     96 H96        22.8571   26.5531    1.5909 H         1 UNK         0.0788 
     97 H97        22.5080   25.9705   -0.0369 H         1 UNK         0.0788 
     98 H98        23.1076   27.6029    0.2076 H         1 UNK         0.0788 
     99 H99        25.4782   24.7723    1.8660 H         1 UNK         0.2993 
    100 H100       24.1356   22.5236    2.5768 H         1 UNK         0.0949 
    101 H101       23.1414   21.0056    0.9102 H         1 UNK         0.0767 
    102 H102       24.6669   20.8724    0.0497 H         1 UNK         0.0767 
    103 H103       24.5074   20.2148    1.6781 H         1 UNK         0.0767 
    104 H104       26.3243   22.4514    2.9382 H         1 UNK         0.3013 
    105 H105       29.1885   30.7764   -0.4558 H         1 UNK         0.3121 
    106 H106       26.8313   31.0282    1.2228 H         1 UNK         0.0774 
    107 H107       27.7802   32.9731   -0.0476 H         1 UNK         0.0815 
    108 H108       27.7859   33.2943    1.6774 H         1 UNK         0.0815 
    109 H109       29.2831   32.8537    0.8685 H         1 UNK         0.0815 
    110 H110       26.7911   31.1541    3.4968 H         1 UNK         0.2987 
    111 H111       28.4305   29.3681    4.9044 H         1 UNK         0.0949 
    112 H112       26.1021   29.9158    5.5623 H         1 UNK         0.0806 
    113 H113       27.1870   30.2057    6.9104 H         1 UNK         0.0806 
    114 H114       26.5756   31.5644    5.9776 H         1 UNK         0.0806 
    115 H115       28.9880   32.7452    4.3245 H         1 UNK         0.3010 
    116 H116       30.9518   33.0908    6.4803 H         1 UNK         0.0829 
    117 H117       30.1069   34.9348    4.1780 H         1 UNK         0.0813 
    118 H118       29.4478   34.9657    5.8144 H         1 UNK         0.0813 
    119 H119       31.1279   35.3861    5.5357 H         1 UNK         0.0813 
    120 H120       31.1108   31.6068    3.3841 H         1 UNK         0.3038 
    121 H121       33.6979   32.6634    2.5565 H         1 UNK         0.0769 
    122 H122       32.1209   30.2382    1.5541 H         1 UNK         0.0811 
    123 H123       33.5015   30.9789    0.7635 H         1 UNK         0.0811 
    124 H124       31.9932   31.8719    0.9047 H         1 UNK         0.0811 
    125 H125       35.3018   32.2519    3.9941 H         1 UNK         0.3204 
    126 H126       36.8809   31.2647    5.1947 H         1 UNK         0.0748 
    127 H127       37.6986   28.9856    4.4992 H         1 UNK         0.0771 
    128 H128       36.3087   28.8126    3.4324 H         1 UNK         0.0771 
    129 H129       37.4930   30.0770    3.1423 H         1 UNK         0.0771 
    130 H130       35.3690   28.1191    5.0661 H         1 UNK         0.2980 
    131 H131       34.8567   27.9608    7.8908 H         1 UNK         0.0545 
    132 H132       31.4661   29.4247    6.2508 H         1 UNK         0.3459 
    133 H133       32.8996   29.2319    5.2497 H         1 UNK         0.3459 
    134 H134       35.3832   25.8734    7.1227 H         1 UNK         0.0616 
    135 H135       33.6593   25.7211    7.0945 H         1 UNK         0.0616 
    136 H136       32.3096   25.1097    4.9299 H         1 UNK         0.0634 
    137 H137       32.4697   26.7927    4.4718 H         1 UNK         0.0634 
@<TRIPOS>BOND
     1    1    2 1    
     2    1   72 1    
     3    1   73 1    
     4    1   74 1    
     5    2    3 2    
     6    2    4 am   BACKBONE|DICT|INTERRES
     7    4    5 1    
     8    4   75 1    
     9    5    6 1    
    10    5   35 1    
    11    5   76 1    
    12    6    7 1    
    13    6   77 1    
    14    6   78 1    
    15    7    8 1    
    16    8    9 1    
    17    8   79 1    
    18    8   80 1    
    19    9   10 ar   
    20    9   14 ar   
    21   10   11 ar   
    22   10   81 1    
    23   11   12 ar   
    24   11   71 1    
    25   12   13 ar   
    26   12   82 1    
    27   13   14 ar   
    28   13   15 1    
    29   14   83 1    
    30   15   16 1    
    31   15   84 1    
    32   15   85 1    
    33   16   17 1    
    34   17   18 1    
    35   17   86 1    
    36   17   87 1    
    37   18   19 1    
    38   18   37 1    
    39   18   88 1    
    40   19   20 am   BACKBONE|DICT|INTERRES
    41   19   89 1    
    42   20   21 2    
    43   20   22 1    
    44   22   23 1    
    45   22   24 1    
    46   22   90 1    
    47   23   91 1    
    48   23   92 1    
    49   23   93 1    
    50   24   25 am   BACKBONE|DICT|INTERRES
    51   24   94 1    
    52   25   26 2    
    53   25   27 1    
    54   27   28 1    
    55   27   29 1    
    56   27   95 1    
    57   28   96 1    
    58   28   97 1    
    59   28   98 1    
    60   29   30 am   BACKBONE|DICT|INTERRES
    61   29   99 1    
    62   30   31 2    
    63   30   32 1    
    64   32   33 1    
    65   32   34 1    
    66   32  100 1    
    67   33  101 1    
    68   33  102 1    
    69   33  103 1    
    70   34   35 am   BACKBONE|DICT|INTERRES
    71   34  104 1    
    72   35   36 2    
    73   37   38 2    
    74   37   39 am   BACKBONE|DICT|INTERRES
    75   39   40 1    
    76   39  105 1    
    77   40   41 1    
    78   40   42 1    
    79   40  106 1    
    80   41  107 1    
    81   41  108 1    
    82   41  109 1    
    83   42   43 2    
    84   42   44 am   BACKBONE|DICT|INTERRES
    85   44   45 1    
    86   44  110 1    
    87   45   46 1    
    88   45   47 1    
    89   45  111 1    
    90   46  112 1    
    91   46  113 1    
    92   46  114 1    
    93   47   48 2    
    94   47   49 am   BACKBONE|DICT|INTERRES
    95   49   50 1    
    96   49  115 1    
    97   50   51 1    
    98   50   52 1    
    99   50  116 1    
   100   51  117 1    
   101   51  118 1    
   102   51  119 1    
   103   52   53 2    
   104   52   54 am   BACKBONE|DICT|INTERRES
   105   54   55 1    
   106   54  120 1    
   107   55   56 1    
   108   55   57 1    
   109   55  121 1    
   110   56  122 1    
   111   56  123 1    
   112   56  124 1    
   113   57   58 2    
   114   57   59 am   BACKBONE|DICT|INTERRES
   115   59   60 1    
   116   59  125 1    
   117   60   61 1    
   118   60   62 1    
   119   60  126 1    
   120   61  127 1    
   121   61  128 1    
   122   61  129 1    
   123   62   63 2    
   124   62   64 am   BACKBONE|DICT|INTERRES
   125   64   65 1    
   126   64  130 1    
   127   65   66 1    
   128   65   69 1    
   129   65  131 1    
   130   66   67 am   BACKBONE|DICT|INTERRES
   131   66   68 2    
   132   67  132 1    
   133   67  133 1    
   134   69   70 1    
   135   69  134 1    
   136   69  135 1    
   137   70   71 1    
   138   71  136 1    
   139   71  137 1    
@<TRIPOS>SUBSTRUCTURE
     1 UNK         1 GROUP             0       ****    0 ROOT    
