@<TRIPOS>MOLECULE
3R136
137   139    1
SMALL
USER_CHARGES


@<TRIPOS>ATOM
      1 CA         29.8144   23.5661   -5.3083 C.3       0 UNK        -0.1979 
      2 C          29.1884   24.2951   -4.1287 C.2       0 UNK         0.4864 
      3 O          28.3822   25.2040   -4.3307 O.2       0 UNK        -0.5359 
      4 N          29.5556   23.9039   -2.9006 N.am      1 UNK        -0.4318 
      5 CA         29.0661   24.4914   -1.6452 C.3       1 UNK         0.0824 
      6 C6         29.8965   24.0274   -0.4256 C.3       12 UNK        -0.0944 
      7 S7         31.6791   24.3661   -0.5956 S.3       12 UNK        -0.2672 
      8 C8         32.3340   23.4517    0.8359 C.3       12 UNK         0.0333 
      9 C9         31.9443   24.1188    2.1463 C.ar      12 UNK        -0.0807 
     10 C10        32.7157   25.1686    2.6512 C.ar      12 UNK        -0.0894 
     11 C11        32.3568   25.8093    3.8407 C.ar      12 UNK        -0.0804 
     12 C12        31.2133   25.3851    4.5266 C.ar      12 UNK        -0.0824 
     13 C13        30.4394   24.3262    4.0384 C.ar      12 UNK        -0.0762 
     14 C14        30.8139   23.6932    2.8504 C.ar      12 UNK        -0.0782 
     15 C15        29.2075   23.8534    4.8012 C.3       12 UNK         0.0230 
     16 S16        27.6483   24.3100    3.9710 S.3       12 UNK        -0.2608 
     17 C17        27.7575   26.1306    3.9427 C.3       12 UNK        -0.0989 
     18 CA         27.8211   26.6638    2.4792 C.3       5 UNK         0.0716 
     19 N          26.5546   26.4714    1.7574 N.am      5 UNK        -0.4135 
     20 C          25.3924   27.0848    2.0320 C.2       4 UNK         0.5031 
     21 O          25.2268   27.8830    2.9565 O.2       4 UNK        -0.5229 
     22 CA         24.1987   26.7420    1.1288 C.3       4 UNK         0.0329 
     23 CB         24.3001   27.4735   -0.2201 C.3       4 UNK        -0.2001 
     24 N          24.0581   25.3041    0.9010 N.am      4 UNK        -0.4303 
     25 C          23.6444   24.4155    1.8185 C.2       3 UNK         0.5044 
     26 O          23.3458   24.7191    2.9741 O.2       3 UNK        -0.5152 
     27 CA         23.4944   22.9463    1.3723 C.3       3 UNK         0.0319 
     28 CB         22.0147   22.5253    1.3861 C.3       3 UNK        -0.2001 
     29 N          24.0355   22.7164    0.0306 N.am      3 UNK        -0.4354 
     30 C          25.3130   22.4146   -0.2296 C.2       2 UNK         0.4964 
     31 O          26.1350   22.1175    0.6396 O.2       2 UNK        -0.5047 
     32 CA         25.7571   22.4739   -1.7069 C.3       2 UNK         0.0288 
     33 CB         24.7817   23.2417   -2.6302 C.3       2 UNK        -0.2113 
     34 N          27.1112   23.0206   -1.8515 N.am      2 UNK        -0.4145 
     35 C          27.5736   24.1954   -1.3886 C.2       1 UNK         0.5006 
     36 O          26.8925   25.0181   -0.7695 O.2       1 UNK        -0.5103 
     37 C          28.3353   28.1200    2.3395 C.2       5 UNK         0.5055 
     38 O          28.0336   28.7744    1.3377 O.2       5 UNK        -0.5220 
     39 N          29.1319   28.5886    3.3144 N.am      6 UNK        -0.4450 
     40 CA         29.7295   29.9282    3.4104 C.3       6 UNK         0.0367 
     41 CB         28.6414   30.9952    3.6554 C.3       6 UNK        -0.1929 
     42 C          30.6549   30.2820    2.2287 C.2       6 UNK         0.5070 
     43 O          30.6904   31.4379    1.7991 O.2       6 UNK        -0.5237 
     44 N          31.3901   29.2809    1.7206 N.am      7 UNK        -0.4739 
     45 CA         32.3387   29.4067    0.6102 C.3       7 UNK         0.0276 
     46 CB         32.9581   28.0330    0.3122 C.3       7 UNK        -0.1927 
     47 C          33.4299   30.4419    0.9245 C.2       7 UNK         0.5013 
     48 O          34.1227   30.2969    1.9329 O.2       7 UNK        -0.5193 
     49 N          33.5067   31.4988    0.1020 N.am      8 UNK        -0.4253 
     50 CA         34.3721   32.6781    0.2639 C.3       8 UNK         0.0242 
     51 CB         35.8486   32.2964    0.0221 C.3       8 UNK        -0.2000 
     52 C          34.1706   33.4256    1.6031 C.2       8 UNK         0.4948 
     53 O          35.0998   34.0824    2.0753 O.2       8 UNK        -0.5275 
     54 N          32.9735   33.2923    2.1992 N.am      9 UNK        -0.4246 
     55 CA         32.5761   33.7675    3.5302 C.3       9 UNK         0.0261 
     56 CB         32.6051   35.3093    3.6074 C.3       9 UNK        -0.1959 
     57 C          33.3396   33.0963    4.6935 C.2       9 UNK         0.5033 
     58 O          33.3367   33.6355    5.8025 O.2       9 UNK        -0.5390 
     59 N          33.9614   31.9338    4.4462 N.am      10 UNK        -0.4215 
     60 CA         34.6186   31.1115    5.4627 C.3       10 UNK         0.0240 
     61 CB         35.7054   30.2578    4.7833 C.3       10 UNK        -0.1982 
     62 C          33.6022   30.2229    6.2018 C.2       10 UNK         0.4970 
     63 O          32.4215   30.1959    5.8470 O.2       10 UNK        -0.4916 
     64 N          34.1002   29.4861    7.2021 N.am      11 UNK        -0.4279 
     65 CA         33.3660   28.4825    7.9969 C.3       11 UNK         0.1003 
     66 C          32.3319   29.0727    9.0037 C.2       11 UNK         0.5709 
     67 N          32.3223   30.3757    9.2590 N.am      11 UNK        -0.7358 
     68 O          31.5458   28.3344    9.5930 O.2       11 UNK        -0.4999 
     69 C69        32.7648   27.3234    7.1437 C.3       12 UNK        -0.0954 
     70 S70        33.9623   26.5755    5.9814 S.3       12 UNK        -0.2268 
     71 C71        33.2045   26.9610    4.3682 C.3       12 UNK         0.0203 
     72 H72        30.3569   24.2700   -5.9389 H         1 UNK         0.0888 
     73 H73        30.5117   22.7926   -4.9869 H         1 UNK         0.0888 
     74 H74        29.0394   23.0945   -5.9120 H         1 UNK         0.0888 
     75 H75        30.2510   23.1782   -2.7976 H         1 UNK         0.3017 
     76 H76        29.1651   25.5760   -1.7298 H         1 UNK         0.0873 
     77 H77        29.5451   24.5298    0.4763 H         1 UNK         0.0745 
     78 H78        29.7624   22.9572   -0.2543 H         1 UNK         0.0745 
     79 H79        33.4210   23.4037    0.7561 H         1 UNK         0.0705 
     80 H80        31.9813   22.4195    0.8075 H         1 UNK         0.0705 
     81 H81        33.5949   25.4880    2.1091 H         1 UNK         0.1334 
     82 H82        30.9327   25.8701    5.4503 H         1 UNK         0.1417 
     83 H83        30.2143   22.8779    2.4683 H         1 UNK         0.1562 
     84 H84        29.2023   24.2542    5.8162 H         1 UNK         0.0748 
     85 H85        29.2445   22.7681    4.9055 H         1 UNK         0.0748 
     86 H86        28.6240   26.4196    4.5336 H         1 UNK         0.0940 
     87 H87        26.8988   26.5407    4.4759 H         1 UNK         0.0940 
     88 H88        28.5607   26.0680    1.9439 H         1 UNK         0.0703 
     89 H89        26.6013   25.8769    0.9340 H         1 UNK         0.3081 
     90 H90        23.2936   27.0915    1.6306 H         1 UNK         0.0719 
     91 H91        25.1688   27.1505   -0.7951 H         1 UNK         0.0809 
     92 H92        23.4125   27.3060   -0.8304 H         1 UNK         0.0809 
     93 H93        24.3921   28.5504   -0.0716 H         1 UNK         0.0809 
     94 H94        24.3327   24.9621   -0.0078 H         1 UNK         0.2990 
     95 H95        24.0300   22.3287    2.0964 H         1 UNK         0.0690 
     96 H96        21.8981   21.4774    1.1091 H         1 UNK         0.0788 
     97 H97        21.4167   23.1240    0.6978 H         1 UNK         0.0788 
     98 H98        21.5832   22.6448    2.3810 H         1 UNK         0.0788 
     99 H99        23.4209   22.9172   -0.7459 H         1 UNK         0.2993 
    100 H100       25.8015   21.4393   -2.0506 H         1 UNK         0.0949 
    101 H101       24.6362   24.2731   -2.3061 H         1 UNK         0.0767 
    102 H102       25.1597   23.2738   -3.6525 H         1 UNK         0.0767 
    103 H103       23.8044   22.7597   -2.6747 H         1 UNK         0.0767 
    104 H104       27.7748   22.4168   -2.3150 H         1 UNK         0.3013 
    105 H105       29.3455   27.9727    4.0848 H         1 UNK         0.3121 
    106 H106       30.3688   29.9106    4.2928 H         1 UNK         0.0774 
    107 H107       29.0874   31.9687    3.8628 H         1 UNK         0.0815 
    108 H108       27.9900   31.1138    2.7889 H         1 UNK         0.0815 
    109 H109       28.0180   30.7375    4.5114 H         1 UNK         0.0815 
    110 H110       31.3067   28.3675    2.1403 H         1 UNK         0.2987 
    111 H111       31.7757   29.7287   -0.2683 H         1 UNK         0.0949 
    112 H112       33.6126   28.0814   -0.5590 H         1 UNK         0.0806 
    113 H113       33.5585   27.6744    1.1483 H         1 UNK         0.0806 
    114 H114       32.1921   27.2869    0.1012 H         1 UNK         0.0806 
    115 H115       32.8655   31.5394   -0.6788 H         1 UNK         0.3010 
    116 H116       34.0800   33.3818   -0.5169 H         1 UNK         0.0829 
    117 H117       35.9754   31.7829   -0.9308 H         1 UNK         0.0813 
    118 H118       36.4849   33.1819   -0.0028 H         1 UNK         0.0813 
    119 H119       36.2306   31.6442    0.8084 H         1 UNK         0.0813 
    120 H120       32.2781   32.7067    1.7440 H         1 UNK         0.3038 
    121 H121       31.5369   33.4576    3.6501 H         1 UNK         0.0769 
    122 H122       32.1476   35.6632    4.5320 H         1 UNK         0.0811 
    123 H123       32.0523   35.7589    2.7827 H         1 UNK         0.0811 
    124 H124       33.6232   35.6984    3.5824 H         1 UNK         0.0811 
    125 H125       33.9021   31.5256    3.5178 H         1 UNK         0.3204 
    126 H126       35.0985   31.7656    6.1937 H         1 UNK         0.0748 
    127 H127       36.3369   29.7584    5.5186 H         1 UNK         0.0771 
    128 H128       35.2725   29.4818    4.1509 H         1 UNK         0.0771 
    129 H129       36.3601   30.8682    4.1606 H         1 UNK         0.0771 
    130 H130       35.0780   29.5825    7.4337 H         1 UNK         0.2980 
    131 H131       34.1273   28.0328    8.6348 H         1 UNK         0.0545 
    132 H132       32.9613   30.9940    8.7860 H         1 UNK         0.3459 
    133 H133       31.6576   30.7439    9.9208 H         1 UNK         0.3459 
    134 H134       31.8863   27.6745    6.6017 H         1 UNK         0.0616 
    135 H135       32.4095   26.5234    7.7953 H         1 UNK         0.0616 
    136 H136       34.0097   27.1910    3.6690 H         1 UNK         0.0634 
    137 H137       32.5995   27.8658    4.4284 H         1 UNK         0.0634 
@<TRIPOS>BOND
     1    1    2 1    
     2    1   72 1    
     3    1   73 1    
     4    1   74 1    
     5    2    3 2    
     6    2    4 am   BACKBONE|DICT|INTERRES
     7    4    5 1    
     8    4   75 1    
     9    5    6 1    
    10    5   35 1    
    11    5   76 1    
    12    6    7 1    
    13    6   77 1    
    14    6   78 1    
    15    7    8 1    
    16    8    9 1    
    17    8   79 1    
    18    8   80 1    
    19    9   10 ar   
    20    9   14 ar   
    21   10   11 ar   
    22   10   81 1    
    23   11   12 ar   
    24   11   71 1    
    25   12   13 ar   
    26   12   82 1    
    27   13   14 ar   
    28   13   15 1    
    29   14   83 1    
    30   15   16 1    
    31   15   84 1    
    32   15   85 1    
    33   16   17 1    
    34   17   18 1    
    35   17   86 1    
    36   17   87 1    
    37   18   19 1    
    38   18   37 1    
    39   18   88 1    
    40   19   20 am   BACKBONE|DICT|INTERRES
    41   19   89 1    
    42   20   21 2    
    43   20   22 1    
    44   22   23 1    
    45   22   24 1    
    46   22   90 1    
    47   23   91 1    
    48   23   92 1    
    49   23   93 1    
    50   24   25 am   BACKBONE|DICT|INTERRES
    51   24   94 1    
    52   25   26 2    
    53   25   27 1    
    54   27   28 1    
    55   27   29 1    
    56   27   95 1    
    57   28   96 1    
    58   28   97 1    
    59   28   98 1    
    60   29   30 am   BACKBONE|DICT|INTERRES
    61   29   99 1    
    62   30   31 2    
    63   30   32 1    
    64   32   33 1    
    65   32   34 1    
    66   32  100 1    
    67   33  101 1    
    68   33  102 1    
    69   33  103 1    
    70   34   35 am   BACKBONE|DICT|INTERRES
    71   34  104 1    
    72   35   36 2    
    73   37   38 2    
    74   37   39 am   BACKBONE|DICT|INTERRES
    75   39   40 1    
    76   39  105 1    
    77   40   41 1    
    78   40   42 1    
    79   40  106 1    
    80   41  107 1    
    81   41  108 1    
    82   41  109 1    
    83   42   43 2    
    84   42   44 am   BACKBONE|DICT|INTERRES
    85   44   45 1    
    86   44  110 1    
    87   45   46 1    
    88   45   47 1    
    89   45  111 1    
    90   46  112 1    
    91   46  113 1    
    92   46  114 1    
    93   47   48 2    
    94   47   49 am   BACKBONE|DICT|INTERRES
    95   49   50 1    
    96   49  115 1    
    97   50   51 1    
    98   50   52 1    
    99   50  116 1    
   100   51  117 1    
   101   51  118 1    
   102   51  119 1    
   103   52   53 2    
   104   52   54 am   BACKBONE|DICT|INTERRES
   105   54   55 1    
   106   54  120 1    
   107   55   56 1    
   108   55   57 1    
   109   55  121 1    
   110   56  122 1    
   111   56  123 1    
   112   56  124 1    
   113   57   58 2    
   114   57   59 am   BACKBONE|DICT|INTERRES
   115   59   60 1    
   116   59  125 1    
   117   60   61 1    
   118   60   62 1    
   119   60  126 1    
   120   61  127 1    
   121   61  128 1    
   122   61  129 1    
   123   62   63 2    
   124   62   64 am   BACKBONE|DICT|INTERRES
   125   64   65 1    
   126   64  130 1    
   127   65   66 1    
   128   65   69 1    
   129   65  131 1    
   130   66   67 am   BACKBONE|DICT|INTERRES
   131   66   68 2    
   132   67  132 1    
   133   67  133 1    
   134   69   70 1    
   135   69  134 1    
   136   69  135 1    
   137   70   71 1    
   138   71  136 1    
   139   71  137 1    
@<TRIPOS>SUBSTRUCTURE
     1 UNK         1 GROUP             0       ****    0 ROOT    
