@<TRIPOS>MOLECULE
3R136
137   139    1
SMALL
USER_CHARGES


@<TRIPOS>ATOM
      1 CA         24.5637   20.6155    1.5408 C.3       0 UNK        -0.1979 
      2 C          26.0582   20.8699    1.4152 C.2       0 UNK         0.4864 
      3 O          26.7858   20.7255    2.3990 O.2       0 UNK        -0.5359 
      4 N          26.5177   21.2566    0.2158 N.am      1 UNK        -0.4318 
      5 CA         27.9040   21.5837   -0.1458 C.3       1 UNK         0.0824 
      6 C6         28.9008   20.4150    0.0984 C.3       12 UNK        -0.0944 
      7 S7         30.3357   20.4611   -1.0252 S.3       12 UNK        -0.2672 
      8 C8         31.7415   20.6336    0.1326 C.3       12 UNK         0.0333 
      9 C9         32.0238   22.0575    0.6164 C.ar      12 UNK        -0.0807 
     10 C10        32.6254   22.2462    1.8658 C.ar      12 UNK        -0.0894 
     11 C11        32.9713   23.5280    2.3034 C.ar      12 UNK        -0.0804 
     12 C12        32.7052   24.6288    1.4868 C.ar      12 UNK        -0.0824 
     13 C13        32.0704   24.4693    0.2499 C.ar      12 UNK        -0.0762 
     14 C14        31.7539   23.1772   -0.1814 C.ar      12 UNK        -0.0782 
     15 C15        31.6775   25.6461   -0.6461 C.3       12 UNK         0.0230 
     16 S16        32.4558   27.2557   -0.2659 S.3       12 UNK        -0.2608 
     17 C17        31.5208   27.8398    1.1903 C.3       12 UNK        -0.0989 
     18 CA         30.3525   28.7687    0.7861 C.3       5 UNK         0.0716 
     19 N          29.2294   28.0174    0.2256 N.am      5 UNK        -0.4135 
     20 C          28.3597   28.4959   -0.6723 C.2       4 UNK         0.5031 
     21 O          28.4253   29.6238   -1.1609 O.2       4 UNK        -0.5229 
     22 CA         27.2121   27.5587   -1.0877 C.3       4 UNK         0.0329 
     23 CB         27.6302   26.6942   -2.2878 C.3       4 UNK        -0.2001 
     24 N          26.7619   26.6907    0.0039 N.am      4 UNK        -0.4303 
     25 C          26.0979   27.1259    1.0859 C.2       3 UNK         0.5044 
     26 O          25.7647   28.2986    1.2576 O.2       3 UNK        -0.5152 
     27 CA         25.7835   26.0890    2.1814 C.3       3 UNK         0.0319 
     28 CB         24.4249   25.4227    1.9124 C.3       3 UNK        -0.2001 
     29 N          26.8041   25.0488    2.3430 N.am      3 UNK        -0.4354 
     30 C          28.1099   25.2536    2.5721 C.2       2 UNK         0.4964 
     31 O          28.6215   26.3668    2.6751 O.2       2 UNK        -0.5047 
     32 CA         29.0109   24.0132    2.6430 C.3       2 UNK         0.0288 
     33 CB         29.1697   23.5457    4.0969 C.3       2 UNK        -0.2113 
     34 N          28.5451   22.8934    1.8231 N.am      2 UNK        -0.4145 
     35 C          28.3600   22.9083    0.4956 C.2       1 UNK         0.5006 
     36 O          28.4930   23.9130   -0.2067 O.2       1 UNK        -0.5103 
     37 C          29.8920   29.6279    1.9756 C.2       5 UNK         0.5055 
     38 O          30.3863   30.7446    2.1289 O.2       5 UNK        -0.5220 
     39 N          28.9595   29.1169    2.7944 N.am      6 UNK        -0.4450 
     40 CA         28.3773   29.7924    3.9624 C.3       6 UNK         0.0367 
     41 CB         27.4727   28.8097    4.7201 C.3       6 UNK        -0.1929 
     42 C          27.6075   31.0818    3.6274 C.2       6 UNK         0.5070 
     43 O          27.4653   31.9422    4.4955 O.2       6 UNK        -0.5237 
     44 N          27.1600   31.2129    2.3718 N.am      7 UNK        -0.4739 
     45 CA         26.6098   32.4437    1.7995 C.3       7 UNK         0.0276 
     46 CB         25.9310   32.1002    0.4633 C.3       7 UNK        -0.1927 
     47 C          27.6622   33.5564    1.6008 C.2       7 UNK         0.5013 
     48 O          27.2768   34.7075    1.3903 O.2       7 UNK        -0.5193 
     49 N          28.9530   33.2026    1.6555 N.am      8 UNK        -0.4253 
     50 CA         30.0992   34.0917    1.5159 C.3       8 UNK         0.0242 
     51 CB         30.7889   33.8081    0.1642 C.3       8 UNK        -0.2000 
     52 C          31.0089   33.9172    2.7456 C.2       8 UNK         0.4948 
     53 O          30.5899   34.2561    3.8532 O.2       8 UNK        -0.5275 
     54 N          32.2384   33.4266    2.5388 N.am      9 UNK        -0.4246 
     55 CA         33.2934   33.3365    3.5529 C.3       9 UNK         0.0261 
     56 CB         34.6547   33.2867    2.8375 C.3       9 UNK        -0.1959 
     57 C          33.1664   32.1527    4.5316 C.2       9 UNK         0.5033 
     58 O          33.8431   32.1787    5.5615 O.2       9 UNK        -0.5390 
     59 N          32.3425   31.1453    4.2011 N.am      10 UNK        -0.4215 
     60 CA         32.1810   29.8578    4.8970 C.3       10 UNK         0.0240 
     61 CB         31.6990   30.0609    6.3512 C.3       10 UNK        -0.1982 
     62 C          33.4247   28.9497    4.8032 C.2       10 UNK         0.4970 
     63 O          34.4145   29.3021    4.1572 O.2       10 UNK        -0.4916 
     64 N          33.3239   27.7597    5.4072 N.am      11 UNK        -0.4279 
     65 CA         34.4006   26.7608    5.4758 C.3       11 UNK         0.1003 
     66 C          35.5687   27.2174    6.3916 C.2       11 UNK         0.5709 
     67 N          36.8007   26.8660    6.0490 N.am      11 UNK        -0.7358 
     68 O          35.3643   27.8469    7.4283 O.2       11 UNK        -0.4999 
     69 C69        33.8666   25.3729    5.9193 C.3       12 UNK        -0.0954 
     70 S70        32.6098   24.7159    4.7742 S.3       12 UNK        -0.2268 
     71 C71        33.6549   23.7423    3.6452 C.3       12 UNK         0.0203 
     72 H72        24.3844   19.5880    1.8562 H         1 UNK         0.0888 
     73 H73        24.1316   21.2815    2.2871 H         1 UNK         0.0888 
     74 H74        24.0407   20.7769    0.5983 H         1 UNK         0.0888 
     75 H75        25.8531   21.3691   -0.5379 H         1 UNK         0.3017 
     76 H76        27.8670   21.7638   -1.2218 H         1 UNK         0.0873 
     77 H77        28.3995   19.4644   -0.0906 H         1 UNK         0.0745 
     78 H78        29.2291   20.3641    1.1378 H         1 UNK         0.0745 
     79 H79        32.6378   20.2735   -0.3740 H         1 UNK         0.0705 
     80 H80        31.5856   19.9654    0.9810 H         1 UNK         0.0705 
     81 H81        32.8462   21.3909    2.4899 H         1 UNK         0.1334 
     82 H82        32.9875   25.6077    1.8435 H         1 UNK         0.1417 
     83 H83        31.2854   23.0498   -1.1474 H         1 UNK         0.1562 
     84 H84        30.5934   25.7550   -0.6254 H         1 UNK         0.0748 
     85 H85        31.9365   25.3995   -1.6768 H         1 UNK         0.0748 
     86 H86        32.2373   28.3702    1.8216 H         1 UNK         0.0940 
     87 H87        31.1609   26.9985    1.7850 H         1 UNK         0.0940 
     88 H88        30.7211   29.4656    0.0295 H         1 UNK         0.0703 
     89 H89        29.0625   27.1011    0.6184 H         1 UNK         0.3081 
     90 H90        26.3702   28.1835   -1.3942 H         1 UNK         0.0719 
     91 H91        26.8027   26.0784   -2.6403 H         1 UNK         0.0809 
     92 H92        27.9493   27.3170   -3.1248 H         1 UNK         0.0809 
     93 H93        28.4595   26.0302   -2.0407 H         1 UNK         0.0809 
     94 H94        27.0256   25.7144   -0.0485 H         1 UNK         0.2990 
     95 H95        25.7156   26.6232    3.1299 H         1 UNK         0.0690 
     96 H96        23.6373   26.1706    1.8088 H         1 UNK         0.0788 
     97 H97        24.1359   24.7636    2.7314 H         1 UNK         0.0788 
     98 H98        24.4379   24.8334    0.9945 H         1 UNK         0.0788 
     99 H99        26.4878   24.0930    2.2732 H         1 UNK         0.2993 
    100 H100       29.9918   24.3086    2.2689 H         1 UNK         0.0949 
    101 H101       28.2320   23.1677    4.5060 H         1 UNK         0.0767 
    102 H102       29.9166   22.7552    4.1760 H         1 UNK         0.0767 
    103 H103       29.5005   24.3650    4.7369 H         1 UNK         0.0767 
    104 H104       28.2948   22.0381    2.3100 H         1 UNK         0.3013 
    105 H105       28.6753   28.1484    2.6528 H         1 UNK         0.3121 
    106 H106       29.1960   30.0779    4.6236 H         1 UNK         0.0774 
    107 H107       26.6085   28.5236    4.1213 H         1 UNK         0.0815 
    108 H108       27.0959   29.2576    5.6405 H         1 UNK         0.0815 
    109 H109       28.0097   27.9023    4.9971 H         1 UNK         0.0815 
    110 H110       27.2717   30.4289    1.7433 H         1 UNK         0.2987 
    111 H111       25.8521   32.8306    2.4845 H         1 UNK         0.0949 
    112 H112       26.6462   31.7115   -0.2631 H         1 UNK         0.0806 
    113 H113       25.1488   31.3521    0.5958 H         1 UNK         0.0806 
    114 H114       25.4645   32.9823    0.0227 H         1 UNK         0.0806 
    115 H115       29.1876   32.2392    1.8764 H         1 UNK         0.3010 
    116 H116       29.7746   35.1343    1.5199 H         1 UNK         0.0829 
    117 H117       30.1090   34.0067   -0.6647 H         1 UNK         0.0813 
    118 H118       31.6595   34.4490    0.0181 H         1 UNK         0.0813 
    119 H119       31.1109   32.7693    0.0769 H         1 UNK         0.0813 
    120 H120       32.4877   33.1479    1.6008 H         1 UNK         0.3038 
    121 H121       33.2640   34.2485    4.1534 H         1 UNK         0.0769 
    122 H122       34.7502   32.3961    2.2149 H         1 UNK         0.0811 
    123 H123       35.4744   33.2679    3.5573 H         1 UNK         0.0811 
    124 H124       34.8047   34.1608    2.2035 H         1 UNK         0.0811 
    125 H125       31.8143   31.2302    3.3363 H         1 UNK         0.3204 
    126 H126       31.3956   29.3252    4.3650 H         1 UNK         0.0748 
    127 H127       32.4993   30.4224    6.9979 H         1 UNK         0.0771 
    128 H128       30.8809   30.7797    6.4011 H         1 UNK         0.0771 
    129 H129       31.3306   29.1301    6.7830 H         1 UNK         0.0771 
    130 H130       32.4841   27.5324    5.9170 H         1 UNK         0.2980 
    131 H131       34.8009   26.6539    4.4654 H         1 UNK         0.0545 
    132 H132       37.5695   27.1400    6.6407 H         1 UNK         0.3459 
    133 H133       36.9801   26.3399    5.2080 H         1 UNK         0.3459 
    134 H134       34.6801   24.6490    5.9980 H         1 UNK         0.0616 
    135 H135       33.4207   25.4356    6.9136 H         1 UNK         0.0616 
    136 H136       33.9031   22.7915    4.1192 H         1 UNK         0.0634 
    137 H137       34.5982   24.2635    3.4756 H         1 UNK         0.0634 
@<TRIPOS>BOND
     1    1    2 1    
     2    1   72 1    
     3    1   73 1    
     4    1   74 1    
     5    2    3 2    
     6    2    4 am   BACKBONE|DICT|INTERRES
     7    4    5 1    
     8    4   75 1    
     9    5    6 1    
    10    5   35 1    
    11    5   76 1    
    12    6    7 1    
    13    6   77 1    
    14    6   78 1    
    15    7    8 1    
    16    8    9 1    
    17    8   79 1    
    18    8   80 1    
    19    9   10 ar   
    20    9   14 ar   
    21   10   11 ar   
    22   10   81 1    
    23   11   12 ar   
    24   11   71 1    
    25   12   13 ar   
    26   12   82 1    
    27   13   14 ar   
    28   13   15 1    
    29   14   83 1    
    30   15   16 1    
    31   15   84 1    
    32   15   85 1    
    33   16   17 1    
    34   17   18 1    
    35   17   86 1    
    36   17   87 1    
    37   18   19 1    
    38   18   37 1    
    39   18   88 1    
    40   19   20 am   BACKBONE|DICT|INTERRES
    41   19   89 1    
    42   20   21 2    
    43   20   22 1    
    44   22   23 1    
    45   22   24 1    
    46   22   90 1    
    47   23   91 1    
    48   23   92 1    
    49   23   93 1    
    50   24   25 am   BACKBONE|DICT|INTERRES
    51   24   94 1    
    52   25   26 2    
    53   25   27 1    
    54   27   28 1    
    55   27   29 1    
    56   27   95 1    
    57   28   96 1    
    58   28   97 1    
    59   28   98 1    
    60   29   30 am   BACKBONE|DICT|INTERRES
    61   29   99 1    
    62   30   31 2    
    63   30   32 1    
    64   32   33 1    
    65   32   34 1    
    66   32  100 1    
    67   33  101 1    
    68   33  102 1    
    69   33  103 1    
    70   34   35 am   BACKBONE|DICT|INTERRES
    71   34  104 1    
    72   35   36 2    
    73   37   38 2    
    74   37   39 am   BACKBONE|DICT|INTERRES
    75   39   40 1    
    76   39  105 1    
    77   40   41 1    
    78   40   42 1    
    79   40  106 1    
    80   41  107 1    
    81   41  108 1    
    82   41  109 1    
    83   42   43 2    
    84   42   44 am   BACKBONE|DICT|INTERRES
    85   44   45 1    
    86   44  110 1    
    87   45   46 1    
    88   45   47 1    
    89   45  111 1    
    90   46  112 1    
    91   46  113 1    
    92   46  114 1    
    93   47   48 2    
    94   47   49 am   BACKBONE|DICT|INTERRES
    95   49   50 1    
    96   49  115 1    
    97   50   51 1    
    98   50   52 1    
    99   50  116 1    
   100   51  117 1    
   101   51  118 1    
   102   51  119 1    
   103   52   53 2    
   104   52   54 am   BACKBONE|DICT|INTERRES
   105   54   55 1    
   106   54  120 1    
   107   55   56 1    
   108   55   57 1    
   109   55  121 1    
   110   56  122 1    
   111   56  123 1    
   112   56  124 1    
   113   57   58 2    
   114   57   59 am   BACKBONE|DICT|INTERRES
   115   59   60 1    
   116   59  125 1    
   117   60   61 1    
   118   60   62 1    
   119   60  126 1    
   120   61  127 1    
   121   61  128 1    
   122   61  129 1    
   123   62   63 2    
   124   62   64 am   BACKBONE|DICT|INTERRES
   125   64   65 1    
   126   64  130 1    
   127   65   66 1    
   128   65   69 1    
   129   65  131 1    
   130   66   67 am   BACKBONE|DICT|INTERRES
   131   66   68 2    
   132   67  132 1    
   133   67  133 1    
   134   69   70 1    
   135   69  134 1    
   136   69  135 1    
   137   70   71 1    
   138   71  136 1    
   139   71  137 1    
@<TRIPOS>SUBSTRUCTURE
     1 UNK         1 GROUP             0       ****    0 ROOT    
