@<TRIPOS>MOLECULE
3R136
137   139    1
SMALL
USER_CHARGES


@<TRIPOS>ATOM
      1 CA         29.1495   18.0591   -0.7711 C.3       0 UNK        -0.1979 
      2 C          29.8690   19.2422   -1.4015 C.2       0 UNK         0.4864 
      3 O          29.8896   19.3620   -2.6271 O.2       0 UNK        -0.5359 
      4 N          30.4619   20.1117   -0.5721 N.am      1 UNK        -0.4318 
      5 CA         31.1695   21.3320   -0.9796 C.3       1 UNK         0.0824 
      6 C6         32.0209   21.9345    0.1712 C.3       12 UNK        -0.0944 
      7 S7         31.1785   21.9929    1.7946 S.3       12 UNK        -0.2672 
      8 C8         30.8945   23.7733    2.0201 C.3       12 UNK         0.0333 
      9 C9         30.3163   24.0563    3.3968 C.ar      12 UNK        -0.0807 
     10 C10        31.1471   24.5088    4.4258 C.ar      12 UNK        -0.0894 
     11 C11        30.6231   24.7883    5.6915 C.ar      12 UNK        -0.0804 
     12 C12        29.2618   24.5818    5.9304 C.ar      12 UNK        -0.0824 
     13 C13        28.4220   24.1164    4.9135 C.ar      12 UNK        -0.0762 
     14 C14        28.9531   23.8637    3.6445 C.ar      12 UNK        -0.0782 
     15 C15        26.9455   23.8772    5.1964 C.3       12 UNK         0.0230 
     16 S16        26.0687   25.4203    5.6020 S.3       12 UNK        -0.2608 
     17 C17        25.9922   26.2533    3.9799 C.3       12 UNK        -0.0989 
     18 CA         27.1795   27.2233    3.7265 C.3       5 UNK         0.0716 
     19 N          27.2800   27.6690    2.3347 N.am      5 UNK        -0.4135 
     20 C          26.3427   28.2800    1.5964 C.2       4 UNK         0.5031 
     21 O          25.2063   28.5318    1.9962 O.2       4 UNK        -0.5229 
     22 CA         26.7004   28.6684    0.1468 C.3       4 UNK         0.0329 
     23 CB         27.0648   30.1622    0.0632 C.3       4 UNK        -0.2001 
     24 N          27.7221   27.8346   -0.5068 N.am      4 UNK        -0.4303 
     25 C          29.0244   27.7177   -0.2216 C.2       3 UNK         0.5044 
     26 O          29.5637   28.2958    0.7205 O.2       3 UNK        -0.5152 
     27 CA         29.8433   26.7595   -1.1075 C.3       3 UNK         0.0319 
     28 CB         31.3384   26.7527   -0.7344 C.3       3 UNK        -0.2001 
     29 N          29.3429   25.3834   -1.0523 N.am      3 UNK        -0.4354 
     30 C          28.2497   24.9102   -1.6658 C.2       2 UNK         0.4964 
     31 O          27.4911   25.6239   -2.3251 O.2       2 UNK        -0.5047 
     32 CA         27.9280   23.4066   -1.5026 C.3       2 UNK         0.0288 
     33 CB         27.3138   22.8081   -2.7860 C.3       2 UNK        -0.2113 
     34 N          29.0404   22.5616   -1.0352 N.am      2 UNK        -0.4145 
     35 C          30.2359   22.3790   -1.6216 C.2       1 UNK         0.5006 
     36 O          30.6128   22.9832   -2.6267 O.2       1 UNK        -0.5103 
     37 C          27.2151   28.4379    4.6737 C.2       5 UNK         0.5055 
     38 O          26.1719   28.9979    5.0142 O.2       5 UNK        -0.5220 
     39 N          28.4375   28.8508    5.0353 N.am      6 UNK        -0.4450 
     40 CA         28.8236   29.9466    5.9386 C.3       6 UNK         0.0367 
     41 CB         28.2416   29.7357    7.3499 C.3       6 UNK        -0.1929 
     42 C          28.5342   31.3694    5.4202 C.2       6 UNK         0.5070 
     43 O          29.1459   32.3179    5.9109 O.2       6 UNK        -0.5237 
     44 N          27.6370   31.5085    4.4378 N.am      7 UNK        -0.4739 
     45 CA         27.2528   32.7720    3.8031 C.3       7 UNK         0.0276 
     46 CB         25.8625   32.5938    3.1701 C.3       7 UNK        -0.1927 
     47 C          28.2680   33.2917    2.7648 C.2       7 UNK         0.5013 
     48 O          28.0901   34.4058    2.2696 O.2       7 UNK        -0.5193 
     49 N          29.2944   32.4953    2.4437 N.am      8 UNK        -0.4253 
     50 CA         30.3797   32.8316    1.5236 C.3       8 UNK         0.0242 
     51 CB         30.2757   31.9349    0.2767 C.3       8 UNK        -0.2000 
     52 C          31.7348   32.6403    2.2179 C.2       8 UNK         0.4948 
     53 O          31.8021   32.0688    3.3106 O.2       8 UNK        -0.5275 
     54 N          32.7961   33.1156    1.5517 N.am      9 UNK        -0.4246 
     55 CA         34.1936   32.9415    1.9548 C.3       9 UNK         0.0261 
     56 CB         35.0962   33.7395    0.9995 C.3       9 UNK        -0.1959 
     57 C          34.6070   31.4595    1.9723 C.2       9 UNK         0.5033 
     58 O          34.0762   30.6648    1.1914 O.2       9 UNK        -0.5390 
     59 N          35.5372   31.1193    2.8767 N.am      10 UNK        -0.4215 
     60 CA         36.0277   29.7607    3.1593 C.3       10 UNK         0.0240 
     61 CB         36.8695   29.2267    1.9799 C.3       10 UNK        -0.1982 
     62 C          34.9054   28.7873    3.5838 C.2       10 UNK         0.4970 
     63 O          34.9802   27.5948    3.2834 O.2       10 UNK        -0.4916 
     64 N          33.8871   29.3270    4.2690 N.am      11 UNK        -0.4279 
     65 CA         32.6523   28.6470    4.6848 C.3       11 UNK         0.1003 
     66 C          31.6545   28.3436    3.5250 C.2       11 UNK         0.5709 
     67 N          31.8696   28.8143    2.3040 N.am      11 UNK        -0.7358 
     68 O          30.6211   27.7207    3.7469 O.2       11 UNK        -0.4999 
     69 C69        32.9329   27.4313    5.6161 C.3       12 UNK        -0.0954 
     70 S70        31.6168   27.1154    6.8406 S.3       12 UNK        -0.2268 
     71 C71        31.5222   25.2960    6.8098 C.3       12 UNK         0.0203 
     72 H72        28.0960   18.0693   -1.0495 H         1 UNK         0.0888 
     73 H73        29.5861   17.1244   -1.1218 H         1 UNK         0.0888 
     74 H74        29.2127   18.0756    0.3168 H         1 UNK         0.0888 
     75 H75        30.4223   19.9569    0.4263 H         1 UNK         0.3017 
     76 H76        31.8670   21.0370   -1.7672 H         1 UNK         0.0873 
     77 H77        32.9092   21.3155    0.3062 H         1 UNK         0.0745 
     78 H78        32.4039   22.9225   -0.0933 H         1 UNK         0.0745 
     79 H79        31.8317   24.3155    1.8825 H         1 UNK         0.0705 
     80 H80        30.2079   24.1346    1.2565 H         1 UNK         0.0705 
     81 H81        32.2014   24.6489    4.2359 H         1 UNK         0.1334 
     82 H82        28.8512   24.7882    6.9095 H         1 UNK         0.1417 
     83 H83        28.3111   23.5049    2.8518 H         1 UNK         0.1562 
     84 H84        26.8563   23.1926    6.0411 H         1 UNK         0.0748 
     85 H85        26.4539   23.3870    4.3547 H         1 UNK         0.0748 
     86 H86        25.0394   26.7821    3.9210 H         1 UNK         0.0940 
     87 H87        25.9581   25.4949    3.1966 H         1 UNK         0.0940 
     88 H88        28.0958   26.6590    3.9009 H         1 UNK         0.0703 
     89 H89        28.2093   27.6191    1.9264 H         1 UNK         0.3081 
     90 H90        25.7952   28.5197   -0.4440 H         1 UNK         0.0719 
     91 H91        27.8660   30.4179    0.7564 H         1 UNK         0.0809 
     92 H92        26.2057   30.7835    0.3164 H         1 UNK         0.0809 
     93 H93        27.3808   30.4435   -0.9411 H         1 UNK         0.0809 
     94 H94        27.3828   27.2461   -1.2638 H         1 UNK         0.2990 
     95 H95        29.7583   27.1188   -2.1352 H         1 UNK         0.0690 
     96 H96        31.9115   26.1068   -1.4000 H         1 UNK         0.0788 
     97 H97        31.5004   26.4108    0.2888 H         1 UNK         0.0788 
     98 H98        31.7647   27.7541   -0.8119 H         1 UNK         0.0788 
     99 H99        29.9069   24.7267   -0.5373 H         1 UNK         0.2993 
    100 H100       27.1665   23.3571   -0.7227 H         1 UNK         0.0949 
    101 H101       27.0551   21.7580   -2.6493 H         1 UNK         0.0767 
    102 H102       26.3985   23.3301   -3.0682 H         1 UNK         0.0767 
    103 H103       28.0008   22.8757   -3.6304 H         1 UNK         0.0767 
    104 H104       28.8514   22.0160   -0.2054 H         1 UNK         0.3013 
    105 H105       29.2271   28.3474    4.6258 H         1 UNK         0.3121 
    106 H106       29.9083   29.8777    6.0252 H         1 UNK         0.0774 
    107 H107       28.6274   30.4823    8.0451 H         1 UNK         0.0815 
    108 H108       27.1544   29.8170    7.3597 H         1 UNK         0.0815 
    109 H109       28.5102   28.7560    7.7455 H         1 UNK         0.0815 
    110 H110       27.1227   30.6808    4.1615 H         1 UNK         0.2987 
    111 H111       27.1762   33.5379    4.5782 H         1 UNK         0.0949 
    112 H112       25.8607   31.8077    2.4157 H         1 UNK         0.0806 
    113 H113       25.1168   32.3343    3.9219 H         1 UNK         0.0806 
    114 H114       25.5262   33.5127    2.6877 H         1 UNK         0.0806 
    115 H115       29.4199   31.6401    2.9669 H         1 UNK         0.3010 
    116 H116       30.3117   33.8775    1.2169 H         1 UNK         0.0829 
    117 H117       29.3323   32.0941   -0.2447 H         1 UNK         0.0813 
    118 H118       31.0725   32.1461   -0.4372 H         1 UNK         0.0813 
    119 H119       30.3463   30.8779    0.5356 H         1 UNK         0.0813 
    120 H120       32.6444   33.5421    0.6495 H         1 UNK         0.3038 
    121 H121       34.2999   33.3478    2.9629 H         1 UNK         0.0769 
    122 H122       34.8427   34.7998    1.0046 H         1 UNK         0.0811 
    123 H123       35.0150   33.3786   -0.0268 H         1 UNK         0.0811 
    124 H124       36.1445   33.6581    1.2901 H         1 UNK         0.0811 
    125 H125       35.9168   31.8486    3.4660 H         1 UNK         0.3204 
    126 H126       36.6899   29.8470    4.0221 H         1 UNK         0.0748 
    127 H127       37.6603   29.9258    1.7082 H         1 UNK         0.0771 
    128 H128       37.3492   28.2814    2.2367 H         1 UNK         0.0771 
    129 H129       36.2587   29.0504    1.0938 H         1 UNK         0.0771 
    130 H130       33.8997   30.3231    4.4327 H         1 UNK         0.2980 
    131 H131       32.1434   29.4019    5.2840 H         1 UNK         0.0545 
    132 H132       31.1526   28.6354    1.6071 H         1 UNK         0.3459 
    133 H133       32.6819   29.3735    2.0752 H         1 UNK         0.3459 
    134 H134       33.1343   26.5384    5.0256 H         1 UNK         0.0616 
    135 H135       33.8410   27.6073    6.1945 H         1 UNK         0.0616 
    136 H136       32.5236   24.8724    6.7195 H         1 UNK         0.0634 
    137 H137       31.1380   24.9547    7.7722 H         1 UNK         0.0634 
@<TRIPOS>BOND
     1    1    2 1    
     2    1   72 1    
     3    1   73 1    
     4    1   74 1    
     5    2    3 2    
     6    2    4 am   BACKBONE|DICT|INTERRES
     7    4    5 1    
     8    4   75 1    
     9    5    6 1    
    10    5   35 1    
    11    5   76 1    
    12    6    7 1    
    13    6   77 1    
    14    6   78 1    
    15    7    8 1    
    16    8    9 1    
    17    8   79 1    
    18    8   80 1    
    19    9   10 ar   
    20    9   14 ar   
    21   10   11 ar   
    22   10   81 1    
    23   11   12 ar   
    24   11   71 1    
    25   12   13 ar   
    26   12   82 1    
    27   13   14 ar   
    28   13   15 1    
    29   14   83 1    
    30   15   16 1    
    31   15   84 1    
    32   15   85 1    
    33   16   17 1    
    34   17   18 1    
    35   17   86 1    
    36   17   87 1    
    37   18   19 1    
    38   18   37 1    
    39   18   88 1    
    40   19   20 am   BACKBONE|DICT|INTERRES
    41   19   89 1    
    42   20   21 2    
    43   20   22 1    
    44   22   23 1    
    45   22   24 1    
    46   22   90 1    
    47   23   91 1    
    48   23   92 1    
    49   23   93 1    
    50   24   25 am   BACKBONE|DICT|INTERRES
    51   24   94 1    
    52   25   26 2    
    53   25   27 1    
    54   27   28 1    
    55   27   29 1    
    56   27   95 1    
    57   28   96 1    
    58   28   97 1    
    59   28   98 1    
    60   29   30 am   BACKBONE|DICT|INTERRES
    61   29   99 1    
    62   30   31 2    
    63   30   32 1    
    64   32   33 1    
    65   32   34 1    
    66   32  100 1    
    67   33  101 1    
    68   33  102 1    
    69   33  103 1    
    70   34   35 am   BACKBONE|DICT|INTERRES
    71   34  104 1    
    72   35   36 2    
    73   37   38 2    
    74   37   39 am   BACKBONE|DICT|INTERRES
    75   39   40 1    
    76   39  105 1    
    77   40   41 1    
    78   40   42 1    
    79   40  106 1    
    80   41  107 1    
    81   41  108 1    
    82   41  109 1    
    83   42   43 2    
    84   42   44 am   BACKBONE|DICT|INTERRES
    85   44   45 1    
    86   44  110 1    
    87   45   46 1    
    88   45   47 1    
    89   45  111 1    
    90   46  112 1    
    91   46  113 1    
    92   46  114 1    
    93   47   48 2    
    94   47   49 am   BACKBONE|DICT|INTERRES
    95   49   50 1    
    96   49  115 1    
    97   50   51 1    
    98   50   52 1    
    99   50  116 1    
   100   51  117 1    
   101   51  118 1    
   102   51  119 1    
   103   52   53 2    
   104   52   54 am   BACKBONE|DICT|INTERRES
   105   54   55 1    
   106   54  120 1    
   107   55   56 1    
   108   55   57 1    
   109   55  121 1    
   110   56  122 1    
   111   56  123 1    
   112   56  124 1    
   113   57   58 2    
   114   57   59 am   BACKBONE|DICT|INTERRES
   115   59   60 1    
   116   59  125 1    
   117   60   61 1    
   118   60   62 1    
   119   60  126 1    
   120   61  127 1    
   121   61  128 1    
   122   61  129 1    
   123   62   63 2    
   124   62   64 am   BACKBONE|DICT|INTERRES
   125   64   65 1    
   126   64  130 1    
   127   65   66 1    
   128   65   69 1    
   129   65  131 1    
   130   66   67 am   BACKBONE|DICT|INTERRES
   131   66   68 2    
   132   67  132 1    
   133   67  133 1    
   134   69   70 1    
   135   69  134 1    
   136   69  135 1    
   137   70   71 1    
   138   71  136 1    
   139   71  137 1    
@<TRIPOS>SUBSTRUCTURE
     1 UNK         1 GROUP             0       ****    0 ROOT    
