@<TRIPOS>MOLECULE
3R136
137   139    1
SMALL
USER_CHARGES


@<TRIPOS>ATOM
      1 CA         31.4137   23.6027   -2.6343 C.3       0 UNK        -0.1979 
      2 C          31.3263   25.0955   -2.3527 C.2       0 UNK         0.4864 
      3 O          31.8328   25.8984   -3.1384 O.2       0 UNK        -0.5359 
      4 N          30.6899   25.4634   -1.2358 N.am      1 UNK        -0.4318 
      5 CA         30.4296   26.8437   -0.8175 C.3       1 UNK         0.0824 
      6 C6         30.4875   26.9654    0.7290 C.3       12 UNK        -0.0944 
      7 S7         32.2087   26.8047    1.3137 S.3       12 UNK        -0.2672 
      8 C8         32.3088   25.0593    1.8292 C.3       12 UNK         0.0333 
      9 C9         31.6060   24.7475    3.1467 C.ar      12 UNK        -0.0807 
     10 C10        31.5947   25.6566    4.2123 C.ar      12 UNK        -0.0894 
     11 C11        30.9745   25.3315    5.4241 C.ar      12 UNK        -0.0804 
     12 C12        30.3352   24.0947    5.5525 C.ar      12 UNK        -0.0824 
     13 C13        30.3322   23.1798    4.4958 C.ar      12 UNK        -0.0762 
     14 C14        30.9892   23.5040    3.3058 C.ar      12 UNK        -0.0782 
     15 C15        29.6043   21.8482    4.6333 C.3       12 UNK         0.0230 
     16 S16        28.2522   21.6632    3.4213 S.3       12 UNK        -0.2608 
     17 C17        27.2440   23.1496    3.7460 C.3       12 UNK        -0.0989 
     18 CA         27.5288   24.2795    2.7243 C.3       5 UNK         0.0716 
     19 N          27.0863   23.9498    1.3746 N.am      5 UNK        -0.4135 
     20 C          27.8767   23.7590    0.3143 C.2       4 UNK         0.5031 
     21 O          29.1060   23.6961    0.3624 O.2       4 UNK        -0.5229 
     22 CA         27.1854   23.7128   -1.0575 C.3       4 UNK         0.0329 
     23 CB         26.3882   22.4102   -1.2675 C.3       4 UNK        -0.2001 
     24 N          26.3907   24.9233   -1.3114 N.am      4 UNK        -0.4303 
     25 C          25.2404   25.3093   -0.7369 C.2       3 UNK         0.5044 
     26 O          24.5957   24.6039    0.0399 O.2       3 UNK        -0.5152 
     27 CA         24.7859   26.7494   -1.0256 C.3       3 UNK         0.0319 
     28 CB         23.6708   27.2344   -0.0790 C.3       3 UNK        -0.2001 
     29 N          25.9384   27.6493   -0.9384 N.am      3 UNK        -0.4354 
     30 C          26.2195   28.6237   -1.8112 C.2       2 UNK         0.4964 
     31 O          25.4633   28.9624   -2.7224 O.2       2 UNK        -0.5047 
     32 CA         27.5829   29.3347   -1.6749 C.3       2 UNK         0.0288 
     33 CB         27.4194   30.6662   -0.9221 C.3       2 UNK        -0.2113 
     34 N          28.6813   28.5654   -1.0639 N.am      2 UNK        -0.4145 
     35 C          29.1052   27.3473   -1.4391 C.2       1 UNK         0.5006 
     36 O          28.5021   26.6489   -2.2594 O.2       1 UNK        -0.5103 
     37 C          26.8018   25.5747    3.1041 C.2       5 UNK         0.5055 
     38 O          25.5702   25.6058    3.0778 O.2       5 UNK        -0.5220 
     39 N          27.5647   26.6221    3.4262 N.am      6 UNK        -0.4450 
     40 CA         27.0750   27.9505    3.7782 C.3       6 UNK         0.0367 
     41 CB         26.6540   28.7133    2.5081 C.3       6 UNK        -0.1929 
     42 C          28.2040   28.6939    4.4912 C.2       6 UNK         0.5070 
     43 O          29.3708   28.3555    4.2864 O.2       6 UNK        -0.5237 
     44 N          27.8509   29.7200    5.2742 N.am      7 UNK        -0.4739 
     45 CA         28.7860   30.6154    5.9638 C.3       7 UNK         0.0276 
     46 CB         28.0585   31.2858    7.1438 C.3       7 UNK        -0.1927 
     47 C          29.4106   31.6373    4.9915 C.2       7 UNK         0.5013 
     48 O          29.1851   32.8418    5.1237 O.2       7 UNK        -0.5193 
     49 N          30.1514   31.1264    4.0065 N.am      8 UNK        -0.4253 
     50 CA         30.8099   31.8623    2.9352 C.3       8 UNK         0.0242 
     51 CB         29.8004   32.1250    1.8025 C.3       8 UNK        -0.2000 
     52 C          31.9960   31.0301    2.4381 C.2       8 UNK         0.4948 
     53 O          32.1170   29.8608    2.8131 O.2       8 UNK        -0.5275 
     54 N          32.8451   31.6458    1.6022 N.am      9 UNK        -0.4246 
     55 CA         34.0361   31.0645    0.9697 C.3       9 UNK         0.0261 
     56 CB         33.6296   30.0937   -0.1603 C.3       9 UNK        -0.1959 
     57 C          34.9984   30.4592    2.0089 C.2       9 UNK         0.5033 
     58 O          35.6664   31.2217    2.7094 O.2       9 UNK        -0.5390 
     59 N          35.0208   29.1240    2.1346 N.am      10 UNK        -0.4215 
     60 CA         35.8051   28.3895    3.1342 C.3       10 UNK         0.0240 
     61 CB         35.6988   26.8809    2.8621 C.3       10 UNK        -0.1982 
     62 C          35.3999   28.6974    4.5887 C.2       10 UNK         0.4970 
     63 O          36.2499   28.6065    5.4752 O.2       10 UNK        -0.4916 
     64 N          34.1330   29.0733    4.7980 N.am      11 UNK        -0.4279 
     65 CA         33.5855   29.5529    6.0738 C.3       11 UNK         0.1003 
     66 C          33.4070   31.1007    6.1023 C.2       11 UNK         0.5709 
     67 N          33.9843   31.8637    5.1799 N.am      11 UNK        -0.7358 
     68 O          32.7500   31.6318    6.9938 O.2       11 UNK        -0.4999 
     69 C69        32.2814   28.7959    6.4367 C.3       12 UNK        -0.0954 
     70 S70        32.5952   27.0648    6.9159 S.3       12 UNK        -0.2268 
     71 C71        30.9663   26.3080    6.5969 C.3       12 UNK         0.0203 
     72 H72        32.4563   23.2927   -2.6980 H         1 UNK         0.0888 
     73 H73        30.9317   23.0136   -1.8538 H         1 UNK         0.0888 
     74 H74        30.9287   23.3709   -3.5820 H         1 UNK         0.0888 
     75 H75        30.2521   24.7523   -0.6539 H         1 UNK         0.3017 
     76 H76        31.2069   27.4895   -1.2325 H         1 UNK         0.0873 
     77 H77        30.1384   27.9387    1.0770 H         1 UNK         0.0745 
     78 H78        29.8527   26.2233    1.2149 H         1 UNK         0.0745 
     79 H79        31.9136   24.4339    1.0280 H         1 UNK         0.0705 
     80 H80        33.3601   24.7903    1.9331 H         1 UNK         0.0705 
     81 H81        32.0743   26.6199    4.1053 H         1 UNK         0.1334 
     82 H82        29.8347   23.8443    6.4781 H         1 UNK         0.1417 
     83 H83        30.9856   22.7952    2.4882 H         1 UNK         0.1562 
     84 H84        29.1956   21.7287    5.6377 H         1 UNK         0.0748 
     85 H85        30.3180   21.0354    4.4939 H         1 UNK         0.0748 
     86 H86        27.4329   23.4911    4.7656 H         1 UNK         0.0940 
     87 H87        26.1909   22.8631    3.7165 H         1 UNK         0.0940 
     88 H88        28.5963   24.4948    2.7169 H         1 UNK         0.0703 
     89 H89        26.0891   24.0602    1.2065 H         1 UNK         0.3081 
     90 H90        27.9775   23.7273   -1.8082 H         1 UNK         0.0719 
     91 H91        25.9254   22.3849   -2.2539 H         1 UNK         0.0809 
     92 H92        25.6016   22.2775   -0.5247 H         1 UNK         0.0809 
     93 H93        27.0450   21.5425   -1.1950 H         1 UNK         0.0809 
     94 H94        26.8716   25.6082   -1.8897 H         1 UNK         0.2990 
     95 H95        24.3920   26.7444   -2.0442 H         1 UNK         0.0690 
     96 H96        23.3913   28.2668   -0.2897 H         1 UNK         0.0788 
     97 H97        23.9735   27.1730    0.9667 H         1 UNK         0.0788 
     98 H98        22.7728   26.6260   -0.1924 H         1 UNK         0.0788 
     99 H99        26.6212   27.4308   -0.2279 H         1 UNK         0.2993 
    100 H100       27.9035   29.5663   -2.6928 H         1 UNK         0.0949 
    101 H101       26.6369   31.2772   -1.3748 H         1 UNK         0.0767 
    102 H102       27.1454   30.5131    0.1216 H         1 UNK         0.0767 
    103 H103       28.3368   31.2543   -0.9489 H         1 UNK         0.0767 
    104 H104       29.2411   29.0704   -0.3930 H         1 UNK         0.3013 
    105 H105       28.5740   26.5367    3.4886 H         1 UNK         0.3121 
    106 H106       26.2273   27.8567    4.4603 H         1 UNK         0.0774 
    107 H107       26.3316   29.7280    2.7448 H         1 UNK         0.0815 
    108 H108       27.4794   28.7894    1.8002 H         1 UNK         0.0815 
    109 H109       25.8215   28.2235    2.0062 H         1 UNK         0.0815 
    110 H110       26.8711   29.9533    5.3538 H         1 UNK         0.2987 
    111 H111       29.6021   30.0205    6.3771 H         1 UNK         0.0949 
    112 H112       28.7339   31.9411    7.6955 H         1 UNK         0.0806 
    113 H113       27.2158   31.8922    6.8094 H         1 UNK         0.0806 
    114 H114       27.6811   30.5455    7.8493 H         1 UNK         0.0806 
    115 H115       30.2920   30.1179    3.9704 H         1 UNK         0.3010 
    116 H116       31.1925   32.8070    3.3261 H         1 UNK         0.0829 
    117 H117       28.9580   32.7211    2.1522 H         1 UNK         0.0813 
    118 H118       30.2583   32.6703    0.9766 H         1 UNK         0.0813 
    119 H119       29.4034   31.1926    1.4015 H         1 UNK         0.0813 
    120 H120       32.6780   32.6193    1.3892 H         1 UNK         0.3038 
    121 H121       34.5781   31.8906    0.5070 H         1 UNK         0.0769 
    122 H122       34.5012   29.6136   -0.6069 H         1 UNK         0.0811 
    123 H123       33.1153   30.6263   -0.9600 H         1 UNK         0.0811 
    124 H124       32.9578   29.3119    0.1880 H         1 UNK         0.0811 
    125 H125       34.3771   28.5832    1.5733 H         1 UNK         0.3204 
    126 H126       36.8484   28.6871    3.0134 H         1 UNK         0.0748 
    127 H127       36.3647   26.3209    3.5191 H         1 UNK         0.0771 
    128 H128       34.6885   26.5141    3.0401 H         1 UNK         0.0771 
    129 H129       35.9735   26.6357    1.8363 H         1 UNK         0.0771 
    130 H130       33.5054   29.1601    4.0028 H         1 UNK         0.2980 
    131 H131       34.3025   29.3561    6.8722 H         1 UNK         0.0545 
    132 H132       34.5649   31.4657    4.4520 H         1 UNK         0.3459 
    133 H133       33.8702   32.8626    5.2368 H         1 UNK         0.3459 
    134 H134       31.5919   28.8237    5.5927 H         1 UNK         0.0616 
    135 H135       31.7678   29.2635    7.2780 H         1 UNK         0.0616 
    136 H136       30.6625   25.7945    7.5101 H         1 UNK         0.0634 
    137 H137       30.2138   27.0764    6.4226 H         1 UNK         0.0634 
@<TRIPOS>BOND
     1    1    2 1    
     2    1   72 1    
     3    1   73 1    
     4    1   74 1    
     5    2    3 2    
     6    2    4 am   BACKBONE|DICT|INTERRES
     7    4    5 1    
     8    4   75 1    
     9    5    6 1    
    10    5   35 1    
    11    5   76 1    
    12    6    7 1    
    13    6   77 1    
    14    6   78 1    
    15    7    8 1    
    16    8    9 1    
    17    8   79 1    
    18    8   80 1    
    19    9   10 ar   
    20    9   14 ar   
    21   10   11 ar   
    22   10   81 1    
    23   11   12 ar   
    24   11   71 1    
    25   12   13 ar   
    26   12   82 1    
    27   13   14 ar   
    28   13   15 1    
    29   14   83 1    
    30   15   16 1    
    31   15   84 1    
    32   15   85 1    
    33   16   17 1    
    34   17   18 1    
    35   17   86 1    
    36   17   87 1    
    37   18   19 1    
    38   18   37 1    
    39   18   88 1    
    40   19   20 am   BACKBONE|DICT|INTERRES
    41   19   89 1    
    42   20   21 2    
    43   20   22 1    
    44   22   23 1    
    45   22   24 1    
    46   22   90 1    
    47   23   91 1    
    48   23   92 1    
    49   23   93 1    
    50   24   25 am   BACKBONE|DICT|INTERRES
    51   24   94 1    
    52   25   26 2    
    53   25   27 1    
    54   27   28 1    
    55   27   29 1    
    56   27   95 1    
    57   28   96 1    
    58   28   97 1    
    59   28   98 1    
    60   29   30 am   BACKBONE|DICT|INTERRES
    61   29   99 1    
    62   30   31 2    
    63   30   32 1    
    64   32   33 1    
    65   32   34 1    
    66   32  100 1    
    67   33  101 1    
    68   33  102 1    
    69   33  103 1    
    70   34   35 am   BACKBONE|DICT|INTERRES
    71   34  104 1    
    72   35   36 2    
    73   37   38 2    
    74   37   39 am   BACKBONE|DICT|INTERRES
    75   39   40 1    
    76   39  105 1    
    77   40   41 1    
    78   40   42 1    
    79   40  106 1    
    80   41  107 1    
    81   41  108 1    
    82   41  109 1    
    83   42   43 2    
    84   42   44 am   BACKBONE|DICT|INTERRES
    85   44   45 1    
    86   44  110 1    
    87   45   46 1    
    88   45   47 1    
    89   45  111 1    
    90   46  112 1    
    91   46  113 1    
    92   46  114 1    
    93   47   48 2    
    94   47   49 am   BACKBONE|DICT|INTERRES
    95   49   50 1    
    96   49  115 1    
    97   50   51 1    
    98   50   52 1    
    99   50  116 1    
   100   51  117 1    
   101   51  118 1    
   102   51  119 1    
   103   52   53 2    
   104   52   54 am   BACKBONE|DICT|INTERRES
   105   54   55 1    
   106   54  120 1    
   107   55   56 1    
   108   55   57 1    
   109   55  121 1    
   110   56  122 1    
   111   56  123 1    
   112   56  124 1    
   113   57   58 2    
   114   57   59 am   BACKBONE|DICT|INTERRES
   115   59   60 1    
   116   59  125 1    
   117   60   61 1    
   118   60   62 1    
   119   60  126 1    
   120   61  127 1    
   121   61  128 1    
   122   61  129 1    
   123   62   63 2    
   124   62   64 am   BACKBONE|DICT|INTERRES
   125   64   65 1    
   126   64  130 1    
   127   65   66 1    
   128   65   69 1    
   129   65  131 1    
   130   66   67 am   BACKBONE|DICT|INTERRES
   131   66   68 2    
   132   67  132 1    
   133   67  133 1    
   134   69   70 1    
   135   69  134 1    
   136   69  135 1    
   137   70   71 1    
   138   71  136 1    
   139   71  137 1    
@<TRIPOS>SUBSTRUCTURE
     1 UNK         1 GROUP             0       ****    0 ROOT    
