@<TRIPOS>MOLECULE
3R136
137   139    1
SMALL
USER_CHARGES


@<TRIPOS>ATOM
      1 CA         27.6025   16.9425   -1.5917 C.3       0 UNK        -0.1979 
      2 C          28.7074   17.9848   -1.4980 C.2       0 UNK         0.4864 
      3 O          29.5025   18.1189   -2.4303 O.2       0 UNK        -0.5359 
      4 N          28.7684   18.7149   -0.3775 N.am      1 UNK        -0.4318 
      5 CA         29.7112   19.8115   -0.1389 C.3       1 UNK         0.0824 
      6 C6         29.9233   20.0611    1.3774 C.3       12 UNK        -0.0944 
      7 S7         28.3990   20.4296    2.3180 S.3       12 UNK        -0.2672 
      8 C8         29.0722   20.7286    3.9856 C.3       12 UNK         0.0333 
      9 C9         29.5535   22.1639    4.1450 C.ar      12 UNK        -0.0807 
     10 C10        30.8523   22.5191    3.7709 C.ar      12 UNK        -0.0894 
     11 C11        31.2827   23.8449    3.8643 C.ar      12 UNK        -0.0804 
     12 C12        30.4085   24.8136    4.3654 C.ar      12 UNK        -0.0824 
     13 C13        29.1136   24.4709    4.7748 C.ar      12 UNK        -0.0762 
     14 C14        28.6946   23.1407    4.6591 C.ar      12 UNK        -0.0782 
     15 C15        28.1262   25.5285    5.2637 C.3       12 UNK         0.0230 
     16 S16        28.9043   26.8852    6.2042 S.3       12 UNK        -0.2608 
     17 C17        27.8487   28.2988    5.7464 C.3       12 UNK        -0.0989 
     18 CA         28.5206   29.1983    4.6789 C.3       5 UNK         0.0716 
     19 N          28.6937   28.5304    3.3836 N.am      5 UNK        -0.4135 
     20 C          29.4740   28.9747    2.3893 C.2       4 UNK         0.5031 
     21 O          30.2028   29.9602    2.5012 O.2       4 UNK        -0.5229 
     22 CA         29.4046   28.2275    1.0375 C.3       4 UNK         0.0329 
     23 CB         30.6588   28.4339    0.1667 C.3       4 UNK        -0.2001 
     24 N          29.1295   26.7887    1.1331 N.am      4 UNK        -0.4303 
     25 C          27.9405   26.2333    1.4033 C.2       3 UNK         0.5044 
     26 O          26.9624   26.8926    1.7602 O.2       3 UNK        -0.5152 
     27 CA         27.8304   24.6977    1.3022 C.3       3 UNK         0.0319 
     28 CB         26.4078   24.2302    0.9316 C.3       3 UNK        -0.2001 
     29 N          28.8271   24.0653    0.4292 N.am      3 UNK        -0.4354 
     30 C          28.9839   24.2473   -0.8920 C.2       2 UNK         0.4964 
     31 O          28.3404   25.0552   -1.5620 O.2       2 UNK        -0.5047 
     32 CA         30.0423   23.3734   -1.5904 C.3       2 UNK         0.0288 
     33 CB         31.3898   24.1123   -1.6466 C.3       2 UNK        -0.2113 
     34 N          30.2363   22.0590   -0.9657 N.am      2 UNK        -0.4145 
     35 C          29.3024   21.0973   -0.8929 C.2       1 UNK         0.5006 
     36 O          28.1695   21.2086   -1.3711 O.2       1 UNK        -0.5103 
     37 C          27.7440   30.5168    4.5042 C.2       5 UNK         0.5055 
     38 O          28.1848   31.5554    4.9988 O.2       5 UNK        -0.5220 
     39 N          26.6241   30.4559    3.7662 N.am      6 UNK        -0.4450 
     40 CA         25.7765   31.6084    3.4434 C.3       6 UNK         0.0367 
     41 CB         24.4606   31.1149    2.8208 C.3       6 UNK        -0.1929 
     42 C          26.4643   32.6226    2.5131 C.2       6 UNK         0.5070 
     43 O          26.1815   33.8179    2.6003 O.2       6 UNK        -0.5237 
     44 N          27.3846   32.1418    1.6664 N.am      7 UNK        -0.4739 
     45 CA         28.2163   32.9409    0.7643 C.3       7 UNK         0.0276 
     46 CB         28.6719   32.0511   -0.4075 C.3       7 UNK        -0.1927 
     47 C          29.3995   33.5862    1.5133 C.2       7 UNK         0.5013 
     48 O          30.5549   33.3429    1.1641 O.2       7 UNK        -0.5193 
     49 N          29.0845   34.3755    2.5524 N.am      8 UNK        -0.4253 
     50 CA         30.0025   35.1372    3.4132 C.3       8 UNK         0.0242 
     51 CB         30.5787   36.3405    2.6335 C.3       8 UNK        -0.2000 
     52 C          31.1046   34.2809    4.0756 C.2       8 UNK         0.4948 
     53 O          32.2192   34.7690    4.2721 O.2       8 UNK        -0.5275 
     54 N          30.7754   33.0199    4.3979 N.am      9 UNK        -0.4246 
     55 CA         31.6550   31.9914    4.9648 C.3       9 UNK         0.0261 
     56 CB         32.0455   32.3435    6.4162 C.3       9 UNK        -0.1959 
     57 C          32.8726   31.6374    4.0850 C.2       9 UNK         0.5033 
     58 O          33.9038   31.2186    4.6188 O.2       9 UNK        -0.5390 
     59 N          32.7449   31.7635    2.7548 N.am      10 UNK        -0.4215 
     60 CA         33.7808   31.4379    1.7665 C.3       10 UNK         0.0240 
     61 CB         33.4816   32.1945    0.4580 C.3       10 UNK        -0.1982 
     62 C          33.9438   29.9171    1.5448 C.2       10 UNK         0.4970 
     63 O          33.9208   29.4555    0.4018 O.2       10 UNK        -0.4916 
     64 N          34.1124   29.1713    2.6414 N.am      11 UNK        -0.4279 
     65 CA         34.2763   27.7110    2.6837 C.3       11 UNK         0.1003 
     66 C          35.4601   27.2537    3.5888 C.2       11 UNK         0.5709 
     67 N          36.2799   28.1551    4.1196 N.am      11 UNK        -0.7358 
     68 O          35.6575   26.0596    3.8032 O.2       11 UNK        -0.4999 
     69 C69        32.9305   27.0112    3.0340 C.3       12 UNK        -0.0954 
     70 S70        32.6829   25.4658    2.0927 S.3       12 UNK        -0.2268 
     71 C71        32.6917   24.2206    3.4224 C.3       12 UNK         0.0203 
     72 H72        28.0323   15.9506   -1.7288 H         1 UNK         0.0888 
     73 H73        26.9837   16.9230   -0.6945 H         1 UNK         0.0888 
     74 H74        26.9574   17.1560   -2.4434 H         1 UNK         0.0888 
     75 H75        28.0698   18.5899    0.3417 H         1 UNK         0.3017 
     76 H76        30.6759   19.5071   -0.5518 H         1 UNK         0.0873 
     77 H77        30.3829   19.1773    1.8230 H         1 UNK         0.0745 
     78 H78        30.6406   20.8670    1.5259 H         1 UNK         0.0745 
     79 H79        28.2933   20.5150    4.7194 H         1 UNK         0.0705 
     80 H80        29.8824   20.0279    4.1933 H         1 UNK         0.0705 
     81 H81        31.5274   21.7629    3.3959 H         1 UNK         0.1334 
     82 H82        30.7364   25.8412    4.4218 H         1 UNK         0.1417 
     83 H83        27.6871   22.8675    4.9439 H         1 UNK         0.1562 
     84 H84        27.3620   25.0730    5.8957 H         1 UNK         0.0748 
     85 H85        27.6063   25.9290    4.3943 H         1 UNK         0.0748 
     86 H86        27.6694   28.8682    6.6611 H         1 UNK         0.0940 
     87 H87        26.8683   27.9496    5.4166 H         1 UNK         0.0940 
     88 H88        29.5137   29.4549    5.0495 H         1 UNK         0.0703 
     89 H89        28.0760   27.7560    3.1721 H         1 UNK         0.3081 
     90 H90        28.5709   28.6836    0.4995 H         1 UNK         0.0719 
     91 H91        31.5313   27.9306    0.5806 H         1 UNK         0.0809 
     92 H92        30.5041   28.0475   -0.8410 H         1 UNK         0.0809 
     93 H93        30.9158   29.4892    0.0655 H         1 UNK         0.0809 
     94 H94        29.8952   26.1709    0.9055 H         1 UNK         0.2990 
     95 H95        28.0363   24.3188    2.2991 H         1 UNK         0.0690 
     96 H96        26.3480   23.1421    0.8926 H         1 UNK         0.0788 
     97 H97        26.0939   24.6188   -0.0377 H         1 UNK         0.0788 
     98 H98        25.6782   24.5668    1.6691 H         1 UNK         0.0788 
     99 H99        29.4240   23.3860    0.8799 H         1 UNK         0.2993 
    100 H100       29.6985   23.2065   -2.6137 H         1 UNK         0.0949 
    101 H101       32.1236   23.5565   -2.2309 H         1 UNK         0.0767 
    102 H102       31.2799   25.0912   -2.1159 H         1 UNK         0.0767 
    103 H103       31.8052   24.2739   -0.6513 H         1 UNK         0.0767 
    104 H104       31.1468   21.8850   -0.5649 H         1 UNK         0.3013 
    105 H105       26.3372   29.5636    3.3893 H         1 UNK         0.3121 
    106 H106       25.5421   32.1263    4.3764 H         1 UNK         0.0774 
    107 H107       24.6309   30.5707    1.8906 H         1 UNK         0.0815 
    108 H108       23.8004   31.9526    2.5914 H         1 UNK         0.0815 
    109 H109       23.9202   30.4571    3.5021 H         1 UNK         0.0815 
    110 H110       27.5840   31.1538    1.7005 H         1 UNK         0.2987 
    111 H111       27.6143   33.7535    0.3512 H         1 UNK         0.0949 
    112 H112       29.2969   31.2270   -0.0650 H         1 UNK         0.0806 
    113 H113       27.8210   31.6296   -0.9434 H         1 UNK         0.0806 
    114 H114       29.2567   32.6244   -1.1287 H         1 UNK         0.0806 
    115 H115       28.0954   34.4630    2.7684 H         1 UNK         0.3010 
    116 H116       29.3976   35.5315    4.2324 H         1 UNK         0.0829 
    117 H117       31.2368   36.0170    1.8247 H         1 UNK         0.0813 
    118 H118       29.7861   36.9491    2.1979 H         1 UNK         0.0813 
    119 H119       31.1607   36.9925    3.2874 H         1 UNK         0.0813 
    120 H120       29.8230   32.7154    4.2266 H         1 UNK         0.3038 
    121 H121       31.0584   31.0821    5.0031 H         1 UNK         0.0769 
    122 H122       32.5740   31.5166    6.8927 H         1 UNK         0.0811 
    123 H123       32.7001   33.2147    6.4585 H         1 UNK         0.0811 
    124 H124       31.1648   32.5542    7.0230 H         1 UNK         0.0811 
    125 H125       31.8528   32.0734    2.3809 H         1 UNK         0.3204 
    126 H126       34.7376   31.8060    2.1438 H         1 UNK         0.0748 
    127 H127       34.2763   32.0459   -0.2743 H         1 UNK         0.0771 
    128 H128       32.5491   31.8547    0.0038 H         1 UNK         0.0771 
    129 H129       33.3969   33.2683    0.6305 H         1 UNK         0.0771 
    130 H130       34.1216   29.6521    3.5374 H         1 UNK         0.2980 
    131 H131       34.5798   27.3917    1.6839 H         1 UNK         0.0545 
    132 H132       37.0443   27.8393    4.6978 H         1 UNK         0.3459 
    133 H133       36.1598   29.1394    3.9387 H         1 UNK         0.3459 
    134 H134       32.8458   26.8365    4.1081 H         1 UNK         0.0616 
    135 H135       32.0880   27.6581    2.7914 H         1 UNK         0.0616 
    136 H136       33.2208   23.3420    3.0504 H         1 UNK         0.0634 
    137 H137       33.2651   24.5741    4.2802 H         1 UNK         0.0634 
@<TRIPOS>BOND
     1    1    2 1    
     2    1   72 1    
     3    1   73 1    
     4    1   74 1    
     5    2    3 2    
     6    2    4 am   BACKBONE|DICT|INTERRES
     7    4    5 1    
     8    4   75 1    
     9    5    6 1    
    10    5   35 1    
    11    5   76 1    
    12    6    7 1    
    13    6   77 1    
    14    6   78 1    
    15    7    8 1    
    16    8    9 1    
    17    8   79 1    
    18    8   80 1    
    19    9   10 ar   
    20    9   14 ar   
    21   10   11 ar   
    22   10   81 1    
    23   11   12 ar   
    24   11   71 1    
    25   12   13 ar   
    26   12   82 1    
    27   13   14 ar   
    28   13   15 1    
    29   14   83 1    
    30   15   16 1    
    31   15   84 1    
    32   15   85 1    
    33   16   17 1    
    34   17   18 1    
    35   17   86 1    
    36   17   87 1    
    37   18   19 1    
    38   18   37 1    
    39   18   88 1    
    40   19   20 am   BACKBONE|DICT|INTERRES
    41   19   89 1    
    42   20   21 2    
    43   20   22 1    
    44   22   23 1    
    45   22   24 1    
    46   22   90 1    
    47   23   91 1    
    48   23   92 1    
    49   23   93 1    
    50   24   25 am   BACKBONE|DICT|INTERRES
    51   24   94 1    
    52   25   26 2    
    53   25   27 1    
    54   27   28 1    
    55   27   29 1    
    56   27   95 1    
    57   28   96 1    
    58   28   97 1    
    59   28   98 1    
    60   29   30 am   BACKBONE|DICT|INTERRES
    61   29   99 1    
    62   30   31 2    
    63   30   32 1    
    64   32   33 1    
    65   32   34 1    
    66   32  100 1    
    67   33  101 1    
    68   33  102 1    
    69   33  103 1    
    70   34   35 am   BACKBONE|DICT|INTERRES
    71   34  104 1    
    72   35   36 2    
    73   37   38 2    
    74   37   39 am   BACKBONE|DICT|INTERRES
    75   39   40 1    
    76   39  105 1    
    77   40   41 1    
    78   40   42 1    
    79   40  106 1    
    80   41  107 1    
    81   41  108 1    
    82   41  109 1    
    83   42   43 2    
    84   42   44 am   BACKBONE|DICT|INTERRES
    85   44   45 1    
    86   44  110 1    
    87   45   46 1    
    88   45   47 1    
    89   45  111 1    
    90   46  112 1    
    91   46  113 1    
    92   46  114 1    
    93   47   48 2    
    94   47   49 am   BACKBONE|DICT|INTERRES
    95   49   50 1    
    96   49  115 1    
    97   50   51 1    
    98   50   52 1    
    99   50  116 1    
   100   51  117 1    
   101   51  118 1    
   102   51  119 1    
   103   52   53 2    
   104   52   54 am   BACKBONE|DICT|INTERRES
   105   54   55 1    
   106   54  120 1    
   107   55   56 1    
   108   55   57 1    
   109   55  121 1    
   110   56  122 1    
   111   56  123 1    
   112   56  124 1    
   113   57   58 2    
   114   57   59 am   BACKBONE|DICT|INTERRES
   115   59   60 1    
   116   59  125 1    
   117   60   61 1    
   118   60   62 1    
   119   60  126 1    
   120   61  127 1    
   121   61  128 1    
   122   61  129 1    
   123   62   63 2    
   124   62   64 am   BACKBONE|DICT|INTERRES
   125   64   65 1    
   126   64  130 1    
   127   65   66 1    
   128   65   69 1    
   129   65  131 1    
   130   66   67 am   BACKBONE|DICT|INTERRES
   131   66   68 2    
   132   67  132 1    
   133   67  133 1    
   134   69   70 1    
   135   69  134 1    
   136   69  135 1    
   137   70   71 1    
   138   71  136 1    
   139   71  137 1    
@<TRIPOS>SUBSTRUCTURE
     1 UNK         1 GROUP             0       ****    0 ROOT    
