@<TRIPOS>MOLECULE
3R136
137   139    1
SMALL
USER_CHARGES


@<TRIPOS>ATOM
      1 CA         27.3685   22.3017    6.0052 C.3       0 UNK        -0.1979 
      2 C          27.9098   22.5064    4.5978 C.2       0 UNK         0.4864 
      3 O          28.2847   23.6257    4.2494 O.2       0 UNK        -0.5359 
      4 N          27.9527   21.4321    3.7961 N.am      1 UNK        -0.4318 
      5 CA         28.3872   21.4117    2.3935 C.3       1 UNK         0.0824 
      6 C6         29.8937   21.7729    2.2270 C.3       12 UNK        -0.0944 
      7 S7         30.6404   20.9899    0.7578 S.3       12 UNK        -0.2672 
      8 C8         32.3653   21.5724    0.8682 C.3       12 UNK         0.0333 
      9 C9         32.4974   23.0857    0.7329 C.ar      12 UNK        -0.0807 
     10 C10        33.2353   23.8108    1.6721 C.ar      12 UNK        -0.0894 
     11 C11        33.3670   25.1972    1.5555 C.ar      12 UNK        -0.0804 
     12 C12        32.7458   25.8629    0.4948 C.ar      12 UNK        -0.0824 
     13 C13        32.0028   25.1509   -0.4568 C.ar      12 UNK        -0.0762 
     14 C14        31.8978   23.7622   -0.3339 C.ar      12 UNK        -0.0782 
     15 C15        31.2412   25.8294   -1.5937 C.3       12 UNK         0.0230 
     16 S16        31.7545   27.5324   -1.9978 S.3       12 UNK        -0.2608 
     17 C17        30.1252   28.2597   -2.4174 C.3       12 UNK        -0.0989 
     18 CA         29.3457   29.0415   -1.3076 C.3       5 UNK         0.0716 
     19 N          27.9282   28.6740   -1.2768 N.am      5 UNK        -0.4135 
     20 C          26.9121   29.5454   -1.3413 C.2       4 UNK         0.5031 
     21 O          27.0522   30.7553   -1.5246 O.2       4 UNK        -0.5229 
     22 CA         25.4877   28.9841   -1.1614 C.3       4 UNK         0.0329 
     23 CB         24.8646   28.6601   -2.5287 C.3       4 UNK        -0.2001 
     24 N          25.4049   27.7991   -0.3016 N.am      4 UNK        -0.4303 
     25 C          25.7946   27.7462    0.9801 C.2       3 UNK         0.5044 
     26 O          26.2768   28.6978    1.5910 O.2       3 UNK        -0.5152 
     27 CA         25.6824   26.3876    1.6904 C.3       3 UNK         0.0319 
     28 CB         24.2847   26.2223    2.3067 C.3       3 UNK        -0.2001 
     29 N          25.9911   25.2120    0.8658 N.am      3 UNK        -0.4354 
     30 C          27.0481   25.0405    0.0585 C.2       2 UNK         0.4964 
     31 O          27.8826   25.9148   -0.1897 O.2       2 UNK        -0.5047 
     32 CA         27.2074   23.6363   -0.5463 C.3       2 UNK         0.0288 
     33 CB         27.9414   23.6574   -1.8986 C.3       2 UNK        -0.2113 
     34 N          27.9355   22.7721    0.3815 N.am      2 UNK        -0.4145 
     35 C          27.4227   22.2203    1.4892 C.2       1 UNK         0.5006 
     36 O          26.2278   22.3058    1.7902 O.2       1 UNK        -0.5103 
     37 C          29.9244   28.9616    0.1209 C.2       5 UNK         0.5055 
     38 O          30.6640   29.8632    0.5152 O.2       5 UNK        -0.5220 
     39 N          29.5764   27.9146    0.8849 N.am      6 UNK        -0.4450 
     40 CA         30.1289   27.6513    2.2161 C.3       6 UNK         0.0367 
     41 CB         29.6911   26.2627    2.7010 C.3       6 UNK        -0.1929 
     42 C          29.8155   28.7369    3.2582 C.2       6 UNK         0.5070 
     43 O          30.6943   29.0668    4.0547 O.2       6 UNK        -0.5237 
     44 N          28.6066   29.3170    3.2159 N.am      7 UNK        -0.4739 
     45 CA         28.2177   30.4330    4.0857 C.3       7 UNK         0.0276 
     46 CB         26.6882   30.5779    4.1026 C.3       7 UNK        -0.1927 
     47 C          28.8775   31.7624    3.6818 C.2       7 UNK         0.5013 
     48 O          29.1062   32.6030    4.5513 O.2       7 UNK        -0.5193 
     49 N          29.1849   31.9261    2.3863 N.am      8 UNK        -0.4253 
     50 CA         29.9171   33.0770    1.8510 C.3       8 UNK         0.0242 
     51 CB         29.6922   33.1856    0.3335 C.3       8 UNK        -0.2000 
     52 C          31.4143   32.9964    2.1899 C.2       8 UNK         0.4948 
     53 O          32.0039   34.0083    2.5707 O.2       8 UNK        -0.5275 
     54 N          31.9894   31.7894    2.0819 N.am      9 UNK        -0.4246 
     55 CA         33.3472   31.4607    2.5235 C.3       9 UNK         0.0261 
     56 CB         33.7225   30.0615    2.0048 C.3       9 UNK        -0.1959 
     57 C          33.5095   31.5211    4.0535 C.2       9 UNK         0.5033 
     58 O          34.6009   31.8374    4.5288 O.2       9 UNK        -0.5390 
     59 N          32.4265   31.2061    4.7809 N.am      10 UNK        -0.4215 
     60 CA         32.3129   31.1008    6.2393 C.3       10 UNK         0.0240 
     61 CB         32.5425   32.4674    6.9193 C.3       10 UNK        -0.1982 
     62 C          33.1919   29.9730    6.8128 C.2       10 UNK         0.4970 
     63 O          33.7531   30.1200    7.9007 O.2       10 UNK        -0.4916 
     64 N          33.3051   28.8730    6.0587 N.am      11 UNK        -0.4279 
     65 CA         34.0740   27.6794    6.4265 C.3       11 UNK         0.1003 
     66 C          33.3430   26.7724    7.4572 C.2       11 UNK         0.5709 
     67 N          34.0578   25.8404    8.0741 N.am      11 UNK        -0.7358 
     68 O          32.1433   26.8934    7.7013 O.2       11 UNK        -0.4999 
     69 C69        34.5593   26.9121    5.1681 C.3       12 UNK        -0.0954 
     70 S70        33.2243   26.3315    4.0700 S.3       12 UNK        -0.2268 
     71 C71        34.1897   25.9688    2.5747 C.3       12 UNK         0.0203 
     72 H72        27.0858   21.2651    6.1880 H         1 UNK         0.0888 
     73 H73        28.1219   22.5825    6.7407 H         1 UNK         0.0888 
     74 H74        26.4893   22.9260    6.1620 H         1 UNK         0.0888 
     75 H75        27.5976   20.5521    4.1434 H         1 UNK         0.3017 
     76 H76        28.2593   20.3725    2.0864 H         1 UNK         0.0873 
     77 H77        30.0458   22.8541    2.2017 H         1 UNK         0.0745 
     78 H78        30.4566   21.4180    3.0919 H         1 UNK         0.0745 
     79 H79        32.7908   21.2266    1.8116 H         1 UNK         0.0705 
     80 H80        32.9466   21.0990    0.0760 H         1 UNK         0.0705 
     81 H81        33.7101   23.2990    2.4982 H         1 UNK         0.1334 
     82 H82        32.8349   26.9377    0.4279 H         1 UNK         0.1417 
     83 H83        31.3282   23.2023   -1.0631 H         1 UNK         0.1562 
     84 H84        30.1929   25.8407   -1.3032 H         1 UNK         0.0748 
     85 H85        31.3076   25.2279   -2.5016 H         1 UNK         0.0748 
     86 H86        29.5023   27.4666   -2.8350 H         1 UNK         0.0940 
     87 H87        30.2914   28.9320   -3.2607 H         1 UNK         0.0940 
     88 H88        29.4308   30.0971   -1.5751 H         1 UNK         0.0703 
     89 H89        27.7195   27.7002   -1.0825 H         1 UNK         0.3081 
     90 H90        24.8905   29.7677   -0.6903 H         1 UNK         0.0719 
     91 H91        24.8879   29.5316   -3.1847 H         1 UNK         0.0809 
     92 H92        25.3992   27.8560   -3.0362 H         1 UNK         0.0809 
     93 H93        23.8209   28.3610   -2.4295 H         1 UNK         0.0809 
     94 H94        25.0338   26.9579   -0.7186 H         1 UNK         0.2990 
     95 H95        26.4007   26.3961    2.5102 H         1 UNK         0.0690 
     96 H96        24.0346   27.0725    2.9434 H         1 UNK         0.0788 
     97 H97        24.2286   25.3285    2.9285 H         1 UNK         0.0788 
     98 H98        23.5113   26.1487    1.5411 H         1 UNK         0.0788 
     99 H99        25.4149   24.3981    1.0377 H         1 UNK         0.2993 
    100 H100       26.2110   23.2222   -0.7171 H         1 UNK         0.0949 
    101 H101       27.4736   24.3608   -2.5889 H         1 UNK         0.0767 
    102 H102       28.9851   23.9470   -1.7915 H         1 UNK         0.0767 
    103 H103       27.9190   22.6757   -2.3721 H         1 UNK         0.0767 
    104 H104       28.9230   22.6422    0.2074 H         1 UNK         0.3013 
    105 H105       28.9654   27.1976    0.5002 H         1 UNK         0.3121 
    106 H106       31.2141   27.6316    2.1099 H         1 UNK         0.0774 
    107 H107       30.0099   25.4818    2.0102 H         1 UNK         0.0815 
    108 H108       30.1315   26.0309    3.6716 H         1 UNK         0.0815 
    109 H109       28.6114   26.1907    2.8124 H         1 UNK         0.0815 
    110 H110       27.9156   29.0041    2.5375 H         1 UNK         0.2987 
    111 H111       28.5436   30.2010    5.1024 H         1 UNK         0.0949 
    112 H112       26.2991   30.8700    3.1265 H         1 UNK         0.0806 
    113 H113       26.2029   29.6457    4.3922 H         1 UNK         0.0806 
    114 H114       26.3780   31.3418    4.8168 H         1 UNK         0.0806 
    115 H115       28.9965   31.1650    1.7493 H         1 UNK         0.3010 
    116 H116       29.5184   33.9823    2.3145 H         1 UNK         0.0829 
    117 H117       30.0932   32.3269   -0.2045 H         1 UNK         0.0813 
    118 H118       28.6315   33.2635    0.0936 H         1 UNK         0.0813 
    119 H119       30.1812   34.0746   -0.0669 H         1 UNK         0.0813 
    120 H120       31.4503   31.0330    1.6618 H         1 UNK         0.3038 
    121 H121       34.0316   32.1894    2.0845 H         1 UNK         0.0769 
    122 H122       33.0656   29.2910    2.4102 H         1 UNK         0.0811 
    123 H123       34.7433   29.8004    2.2871 H         1 UNK         0.0811 
    124 H124       33.6620   30.0110    0.9174 H         1 UNK         0.0811 
    125 H125       31.6230   30.8496    4.2738 H         1 UNK         0.3204 
    126 H126       31.2811   30.8061    6.4369 H         1 UNK         0.0748 
    127 H127       32.3176   32.4159    7.9852 H         1 UNK         0.0771 
    128 H128       33.5755   32.8022    6.8211 H         1 UNK         0.0771 
    129 H129       31.8980   33.2344    6.4892 H         1 UNK         0.0771 
    130 H130       32.7449   28.7976    5.2196 H         1 UNK         0.2980 
    131 H131       34.9737   28.0314    6.9353 H         1 UNK         0.0545 
    132 H132       35.0413   25.7258    7.8858 H         1 UNK         0.3459 
    133 H133       33.6028   25.2392    8.7431 H         1 UNK         0.3459 
    134 H134       35.1717   26.0544    5.4511 H         1 UNK         0.0616 
    135 H135       35.2156   27.5636    4.5886 H         1 UNK         0.0616 
    136 H136       35.0727   25.3876    2.8451 H         1 UNK         0.0634 
    137 H137       34.5533   26.9038    2.1458 H         1 UNK         0.0634 
@<TRIPOS>BOND
     1    1    2 1    
     2    1   72 1    
     3    1   73 1    
     4    1   74 1    
     5    2    3 2    
     6    2    4 am   BACKBONE|DICT|INTERRES
     7    4    5 1    
     8    4   75 1    
     9    5    6 1    
    10    5   35 1    
    11    5   76 1    
    12    6    7 1    
    13    6   77 1    
    14    6   78 1    
    15    7    8 1    
    16    8    9 1    
    17    8   79 1    
    18    8   80 1    
    19    9   10 ar   
    20    9   14 ar   
    21   10   11 ar   
    22   10   81 1    
    23   11   12 ar   
    24   11   71 1    
    25   12   13 ar   
    26   12   82 1    
    27   13   14 ar   
    28   13   15 1    
    29   14   83 1    
    30   15   16 1    
    31   15   84 1    
    32   15   85 1    
    33   16   17 1    
    34   17   18 1    
    35   17   86 1    
    36   17   87 1    
    37   18   19 1    
    38   18   37 1    
    39   18   88 1    
    40   19   20 am   BACKBONE|DICT|INTERRES
    41   19   89 1    
    42   20   21 2    
    43   20   22 1    
    44   22   23 1    
    45   22   24 1    
    46   22   90 1    
    47   23   91 1    
    48   23   92 1    
    49   23   93 1    
    50   24   25 am   BACKBONE|DICT|INTERRES
    51   24   94 1    
    52   25   26 2    
    53   25   27 1    
    54   27   28 1    
    55   27   29 1    
    56   27   95 1    
    57   28   96 1    
    58   28   97 1    
    59   28   98 1    
    60   29   30 am   BACKBONE|DICT|INTERRES
    61   29   99 1    
    62   30   31 2    
    63   30   32 1    
    64   32   33 1    
    65   32   34 1    
    66   32  100 1    
    67   33  101 1    
    68   33  102 1    
    69   33  103 1    
    70   34   35 am   BACKBONE|DICT|INTERRES
    71   34  104 1    
    72   35   36 2    
    73   37   38 2    
    74   37   39 am   BACKBONE|DICT|INTERRES
    75   39   40 1    
    76   39  105 1    
    77   40   41 1    
    78   40   42 1    
    79   40  106 1    
    80   41  107 1    
    81   41  108 1    
    82   41  109 1    
    83   42   43 2    
    84   42   44 am   BACKBONE|DICT|INTERRES
    85   44   45 1    
    86   44  110 1    
    87   45   46 1    
    88   45   47 1    
    89   45  111 1    
    90   46  112 1    
    91   46  113 1    
    92   46  114 1    
    93   47   48 2    
    94   47   49 am   BACKBONE|DICT|INTERRES
    95   49   50 1    
    96   49  115 1    
    97   50   51 1    
    98   50   52 1    
    99   50  116 1    
   100   51  117 1    
   101   51  118 1    
   102   51  119 1    
   103   52   53 2    
   104   52   54 am   BACKBONE|DICT|INTERRES
   105   54   55 1    
   106   54  120 1    
   107   55   56 1    
   108   55   57 1    
   109   55  121 1    
   110   56  122 1    
   111   56  123 1    
   112   56  124 1    
   113   57   58 2    
   114   57   59 am   BACKBONE|DICT|INTERRES
   115   59   60 1    
   116   59  125 1    
   117   60   61 1    
   118   60   62 1    
   119   60  126 1    
   120   61  127 1    
   121   61  128 1    
   122   61  129 1    
   123   62   63 2    
   124   62   64 am   BACKBONE|DICT|INTERRES
   125   64   65 1    
   126   64  130 1    
   127   65   66 1    
   128   65   69 1    
   129   65  131 1    
   130   66   67 am   BACKBONE|DICT|INTERRES
   131   66   68 2    
   132   67  132 1    
   133   67  133 1    
   134   69   70 1    
   135   69  134 1    
   136   69  135 1    
   137   70   71 1    
   138   71  136 1    
   139   71  137 1    
@<TRIPOS>SUBSTRUCTURE
     1 UNK         1 GROUP             0       ****    0 ROOT    
