@<TRIPOS>MOLECULE
3R136
137   139    1
SMALL
USER_CHARGES


@<TRIPOS>ATOM
      1 CA         31.8643   25.3819   -1.6168 C.3       0 UNK        -0.1979 
      2 C          30.9129   24.2610   -1.2240 C.2       0 UNK         0.4864 
      3 O          30.7692   23.2927   -1.9718 O.2       0 UNK        -0.5359 
      4 N          30.2746   24.3879   -0.0534 N.am      1 UNK        -0.4318 
      5 CA         29.2892   23.4536    0.5047 C.3       1 UNK         0.0824 
      6 C6         29.9078   22.0760    0.8899 C.3       12 UNK        -0.0944 
      7 S7         29.0418   21.3126    2.3074 S.3       12 UNK        -0.2672 
      8 C8         30.0845   21.8196    3.7162 C.3       12 UNK         0.0333 
      9 C9         30.2499   23.3314    3.7840 C.ar      12 UNK        -0.0807 
     10 C10        31.4385   23.9240    3.3487 C.ar      12 UNK        -0.0894 
     11 C11        31.5901   25.3126    3.3440 C.ar      12 UNK        -0.0804 
     12 C12        30.5269   26.1098    3.7897 C.ar      12 UNK        -0.0824 
     13 C13        29.3412   25.5308    4.2537 C.ar      12 UNK        -0.0762 
     14 C14        29.2086   24.1392    4.2499 C.ar      12 UNK        -0.0782 
     15 C15        28.2105   26.4054    4.7787 C.3       12 UNK         0.0230 
     16 S16        26.9635   26.7638    3.5004 S.3       12 UNK        -0.2608 
     17 C17        27.8598   27.9317    2.4234 C.3       12 UNK        -0.0989 
     18 CA         28.2115   27.2917    1.0579 C.3       5 UNK         0.0716 
     19 N          27.0410   26.9541    0.2336 N.am      5 UNK        -0.4135 
     20 C          26.0720   27.7657   -0.2136 C.2       4 UNK         0.5031 
     21 O          26.0691   28.9865   -0.0503 O.2       4 UNK        -0.5229 
     22 CA         24.9291   27.1126   -1.0069 C.3       4 UNK         0.0329 
     23 CB         25.2916   27.0337   -2.4985 C.3       4 UNK        -0.2001 
     24 N          24.5972   25.7732   -0.5206 N.am      4 UNK        -0.4303 
     25 C          24.0027   25.4922    0.6462 C.2       3 UNK         0.5044 
     26 O          23.5963   26.3567    1.4231 O.2       3 UNK        -0.5152 
     27 CA         23.8384   24.0075    1.0375 C.3       3 UNK         0.0319 
     28 CB         22.3917   23.5292    0.8023 C.3       3 UNK        -0.2001 
     29 N          24.8156   23.0854    0.4331 N.am      3 UNK        -0.4354 
     30 C          24.9644   22.7419   -0.8561 C.2       2 UNK         0.4964 
     31 O          24.2348   23.1501   -1.7606 O.2       2 UNK        -0.5047 
     32 CA         26.1755   21.8474   -1.1897 C.3       2 UNK         0.0288 
     33 CB         26.4993   21.8245   -2.6991 C.3       2 UNK        -0.2113 
     34 N          27.3820   22.1879   -0.4211 N.am      2 UNK        -0.4145 
     35 C          28.0073   23.3753   -0.3579 C.2       1 UNK         0.5006 
     36 O          27.5869   24.4009   -0.9011 O.2       1 UNK        -0.5103 
     37 C          29.2853   28.1109    0.3149 C.2       5 UNK         0.5055 
     38 O          30.4708   27.8712    0.5437 O.2       5 UNK        -0.5220 
     39 N          28.8682   29.0422   -0.5523 N.am      6 UNK        -0.4450 
     40 CA         29.6499   29.9174   -1.4357 C.3       6 UNK         0.0367 
     41 CB         30.5468   29.1051   -2.3909 C.3       6 UNK        -0.1929 
     42 C          30.4575   31.0095   -0.7123 C.2       6 UNK         0.5070 
     43 O          30.4441   32.1554   -1.1629 O.2       6 UNK        -0.5237 
     44 N          31.1366   30.6567    0.3833 N.am      7 UNK        -0.4739 
     45 CA         31.9913   31.5491    1.1644 C.3       7 UNK         0.0276 
     46 CB         33.4187   31.5451    0.5808 C.3       7 UNK        -0.1927 
     47 C          31.9496   31.1512    2.6446 C.2       7 UNK         0.5013 
     48 O          33.0002   30.9400    3.2507 O.2       7 UNK        -0.5193 
     49 N          30.7360   31.0625    3.2111 N.am      8 UNK        -0.4253 
     50 CA         30.4554   30.6178    4.5864 C.3       8 UNK         0.0242 
     51 CB         28.9573   30.7914    4.8865 C.3       8 UNK        -0.2000 
     52 C          31.2926   31.3046    5.6839 C.2       8 UNK         0.4948 
     53 O          31.6885   30.6439    6.6446 O.2       8 UNK        -0.5275 
     54 N          31.5801   32.6011    5.5002 N.am      9 UNK        -0.4246 
     55 CA         32.4351   33.4029    6.3796 C.3       9 UNK         0.0261 
     56 CB         32.3001   34.8863    5.9990 C.3       9 UNK        -0.1959 
     57 C          33.9171   32.9793    6.3706 C.2       9 UNK         0.5033 
     58 O          34.6004   33.1939    7.3730 O.2       9 UNK        -0.5390 
     59 N          34.3901   32.3955    5.2602 N.am      10 UNK        -0.4215 
     60 CA         35.7327   31.8262    5.1344 C.3       10 UNK         0.0240 
     61 CB         36.2164   31.9434    3.6791 C.3       10 UNK        -0.1982 
     62 C          35.7548   30.3626    5.5997 C.2       10 UNK         0.4970 
     63 O          36.7341   29.9494    6.2221 O.2       10 UNK        -0.4916 
     64 N          34.6837   29.6132    5.3009 N.am      11 UNK        -0.4279 
     65 CA         34.4775   28.2263    5.7468 C.3       11 UNK         0.1003 
     66 C          34.3940   28.0853    7.2919 C.2       11 UNK         0.5709 
     67 N          33.6591   28.9528    7.9780 N.am      11 UNK        -0.7358 
     68 O          35.0002   27.1852    7.8682 O.2       11 UNK        -0.4999 
     69 C69        33.2316   27.5786    5.0927 C.3       12 UNK        -0.0954 
     70 S70        33.2470   27.6314    3.2686 S.3       12 UNK        -0.2268 
     71 C71        32.9136   25.8908    2.8346 C.3       12 UNK         0.0203 
     72 H72        32.0096   26.0969   -0.8071 H         1 UNK         0.0888 
     73 H73        32.8387   24.9731   -1.8827 H         1 UNK         0.0888 
     74 H74        31.4722   25.9202   -2.4792 H         1 UNK         0.0888 
     75 H75        30.4465   25.2153    0.5009 H         1 UNK         0.3017 
     76 H76        28.9607   23.9401    1.4223 H         1 UNK         0.0873 
     77 H77        29.9161   21.3860    0.0441 H         1 UNK         0.0745 
     78 H78        30.9580   22.1934    1.1589 H         1 UNK         0.0745 
     79 H79        31.0551   21.3272    3.6385 H         1 UNK         0.0705 
     80 H80        29.6324   21.4591    4.6413 H         1 UNK         0.0705 
     81 H81        32.2465   23.2998    2.9917 H         1 UNK         0.1334 
     82 H82        30.6185   27.1851    3.7854 H         1 UNK         0.1417 
     83 H83        28.2882   23.6848    4.5914 H         1 UNK         0.1562 
     84 H84        28.6021   27.3400    5.1840 H         1 UNK         0.0748 
     85 H85        27.7186   25.9019    5.6123 H         1 UNK         0.0748 
     86 H86        28.7617   28.2668    2.9361 H         1 UNK         0.0940 
     87 H87        27.2486   28.8259    2.2941 H         1 UNK         0.0940 
     88 H88        28.6851   26.3344    1.2720 H         1 UNK         0.0703 
     89 H89        27.0079   25.9854   -0.0748 H         1 UNK         0.3081 
     90 H90        24.0446   27.7437   -0.8986 H         1 UNK         0.0719 
     91 H91        26.1584   26.3935   -2.6703 H         1 UNK         0.0809 
     92 H92        24.4629   26.6395   -3.0871 H         1 UNK         0.0809 
     93 H93        25.5299   28.0213   -2.8961 H         1 UNK         0.0809 
     94 H94        24.8409   24.9913   -1.1180 H         1 UNK         0.2990 
     95 H95        24.0251   23.9599    2.1116 H         1 UNK         0.0690 
     96 H96        22.2546   22.5002    1.1345 H         1 UNK         0.0788 
     97 H97        22.1078   23.5843   -0.2490 H         1 UNK         0.0788 
     98 H98        21.6844   24.1459    1.3585 H         1 UNK         0.0788 
     99 H99        25.4939   22.7102    1.0817 H         1 UNK         0.2993 
    100 H100       25.8925   20.8353   -0.8958 H         1 UNK         0.0949 
    101 H101       26.7508   22.8181   -3.0726 H         1 UNK         0.0767 
    102 H102       27.3398   21.1645   -2.9140 H         1 UNK         0.0767 
    103 H103       25.6490   21.4630   -3.2790 H         1 UNK         0.0767 
    104 H104       27.7861   21.4306    0.1157 H         1 UNK         0.3013 
    105 H105       27.8616   29.1919   -0.5800 H         1 UNK         0.3121 
    106 H106       28.9115   30.4357   -2.0499 H         1 UNK         0.0774 
    107 H107       31.0228   29.7582   -3.1234 H         1 UNK         0.0815 
    108 H108       31.3439   28.5841   -1.8600 H         1 UNK         0.0815 
    109 H109       29.9699   28.3636   -2.9434 H         1 UNK         0.0815 
    110 H110       31.0971   29.6817    0.6742 H         1 UNK         0.2987 
    111 H111       31.6037   32.5688    1.1107 H         1 UNK         0.0949 
    112 H112       33.8689   30.5528    0.6320 H         1 UNK         0.0806 
    113 H113       33.4240   31.8630   -0.4617 H         1 UNK         0.0806 
    114 H114       34.0680   32.2289    1.1290 H         1 UNK         0.0806 
    115 H115       29.9344   31.2709    2.6332 H         1 UNK         0.3010 
    116 H116       30.6872   29.5527    4.6241 H         1 UNK         0.0829 
    117 H117       28.7138   30.4166    5.8819 H         1 UNK         0.0813 
    118 H118       28.6583   31.8398    4.8523 H         1 UNK         0.0813 
    119 H119       28.3347   30.2461    4.1792 H         1 UNK         0.0813 
    120 H120       31.2094   33.0602    4.6810 H         1 UNK         0.3038 
    121 H121       32.0691   33.2784    7.4011 H         1 UNK         0.0769 
    122 H122       32.9029   35.5139    6.6571 H         1 UNK         0.0811 
    123 H123       31.2683   35.2273    6.0865 H         1 UNK         0.0811 
    124 H124       32.6322   35.0737    4.9771 H         1 UNK         0.0811 
    125 H125       33.7474   32.1828    4.5026 H         1 UNK         0.3204 
    126 H126       36.4257   32.3905    5.7623 H         1 UNK         0.0748 
    127 H127       37.2427   31.5868    3.5828 H         1 UNK         0.0771 
    128 H128       35.6045   31.3537    2.9959 H         1 UNK         0.0771 
    129 H129       36.1990   32.9783    3.3371 H         1 UNK         0.0771 
    130 H130       33.9534   30.0094    4.7187 H         1 UNK         0.2980 
    131 H131       35.3510   27.6583    5.4211 H         1 UNK         0.0545 
    132 H132       33.0946   29.6464    7.4947 H         1 UNK         0.3459 
    133 H133       33.6034   28.8700    8.9799 H         1 UNK         0.3459 
    134 H134       33.1449   26.5391    5.4145 H         1 UNK         0.0616 
    135 H135       32.3231   28.0752    5.4349 H         1 UNK         0.0616 
    136 H136       33.7428   25.2867    3.2060 H         1 UNK         0.0634 
    137 H137       32.9295   25.8053    1.7475 H         1 UNK         0.0634 
@<TRIPOS>BOND
     1    1    2 1    
     2    1   72 1    
     3    1   73 1    
     4    1   74 1    
     5    2    3 2    
     6    2    4 am   BACKBONE|DICT|INTERRES
     7    4    5 1    
     8    4   75 1    
     9    5    6 1    
    10    5   35 1    
    11    5   76 1    
    12    6    7 1    
    13    6   77 1    
    14    6   78 1    
    15    7    8 1    
    16    8    9 1    
    17    8   79 1    
    18    8   80 1    
    19    9   10 ar   
    20    9   14 ar   
    21   10   11 ar   
    22   10   81 1    
    23   11   12 ar   
    24   11   71 1    
    25   12   13 ar   
    26   12   82 1    
    27   13   14 ar   
    28   13   15 1    
    29   14   83 1    
    30   15   16 1    
    31   15   84 1    
    32   15   85 1    
    33   16   17 1    
    34   17   18 1    
    35   17   86 1    
    36   17   87 1    
    37   18   19 1    
    38   18   37 1    
    39   18   88 1    
    40   19   20 am   BACKBONE|DICT|INTERRES
    41   19   89 1    
    42   20   21 2    
    43   20   22 1    
    44   22   23 1    
    45   22   24 1    
    46   22   90 1    
    47   23   91 1    
    48   23   92 1    
    49   23   93 1    
    50   24   25 am   BACKBONE|DICT|INTERRES
    51   24   94 1    
    52   25   26 2    
    53   25   27 1    
    54   27   28 1    
    55   27   29 1    
    56   27   95 1    
    57   28   96 1    
    58   28   97 1    
    59   28   98 1    
    60   29   30 am   BACKBONE|DICT|INTERRES
    61   29   99 1    
    62   30   31 2    
    63   30   32 1    
    64   32   33 1    
    65   32   34 1    
    66   32  100 1    
    67   33  101 1    
    68   33  102 1    
    69   33  103 1    
    70   34   35 am   BACKBONE|DICT|INTERRES
    71   34  104 1    
    72   35   36 2    
    73   37   38 2    
    74   37   39 am   BACKBONE|DICT|INTERRES
    75   39   40 1    
    76   39  105 1    
    77   40   41 1    
    78   40   42 1    
    79   40  106 1    
    80   41  107 1    
    81   41  108 1    
    82   41  109 1    
    83   42   43 2    
    84   42   44 am   BACKBONE|DICT|INTERRES
    85   44   45 1    
    86   44  110 1    
    87   45   46 1    
    88   45   47 1    
    89   45  111 1    
    90   46  112 1    
    91   46  113 1    
    92   46  114 1    
    93   47   48 2    
    94   47   49 am   BACKBONE|DICT|INTERRES
    95   49   50 1    
    96   49  115 1    
    97   50   51 1    
    98   50   52 1    
    99   50  116 1    
   100   51  117 1    
   101   51  118 1    
   102   51  119 1    
   103   52   53 2    
   104   52   54 am   BACKBONE|DICT|INTERRES
   105   54   55 1    
   106   54  120 1    
   107   55   56 1    
   108   55   57 1    
   109   55  121 1    
   110   56  122 1    
   111   56  123 1    
   112   56  124 1    
   113   57   58 2    
   114   57   59 am   BACKBONE|DICT|INTERRES
   115   59   60 1    
   116   59  125 1    
   117   60   61 1    
   118   60   62 1    
   119   60  126 1    
   120   61  127 1    
   121   61  128 1    
   122   61  129 1    
   123   62   63 2    
   124   62   64 am   BACKBONE|DICT|INTERRES
   125   64   65 1    
   126   64  130 1    
   127   65   66 1    
   128   65   69 1    
   129   65  131 1    
   130   66   67 am   BACKBONE|DICT|INTERRES
   131   66   68 2    
   132   67  132 1    
   133   67  133 1    
   134   69   70 1    
   135   69  134 1    
   136   69  135 1    
   137   70   71 1    
   138   71  136 1    
   139   71  137 1    
@<TRIPOS>SUBSTRUCTURE
     1 UNK         1 GROUP             0       ****    0 ROOT    
