@<TRIPOS>MOLECULE
3R136
137   139    1
SMALL
USER_CHARGES


@<TRIPOS>ATOM
      1 CA         25.8411   21.7381    1.0920 C.3       0 UNK        -0.1979 
      2 C          27.3050   21.3789    0.8833 C.2       0 UNK         0.4864 
      3 O          27.7482   20.3283    1.3499 O.2       0 UNK        -0.5359 
      4 N          28.0542   22.2411    0.1904 N.am      1 UNK        -0.4318 
      5 CA         29.4798   22.0787   -0.0943 C.3       1 UNK         0.0824 
      6 C6         30.3987   22.3652    1.1290 C.3       12 UNK        -0.0944 
      7 S7         30.0838   23.9511    1.9863 S.3       12 UNK        -0.2672 
      8 C8         29.4540   23.3489    3.5846 C.3       12 UNK         0.0333 
      9 C9         29.3414   24.4852    4.5867 C.ar      12 UNK        -0.0807 
     10 C10        30.4852   24.9413    5.2469 C.ar      12 UNK        -0.0894 
     11 C11        30.4101   26.0027    6.1523 C.ar      12 UNK        -0.0804 
     12 C12        29.1718   26.6058    6.3970 C.ar      12 UNK        -0.0824 
     13 C13        28.0132   26.1379    5.7662 C.ar      12 UNK        -0.0762 
     14 C14        28.1036   25.0708    4.8667 C.ar      12 UNK        -0.0782 
     15 C15        26.6652   26.7671    6.0915 C.3       12 UNK         0.0230 
     16 S16        26.3816   28.2878    5.1321 S.3       12 UNK        -0.2608 
     17 C17        25.4067   27.6822    3.7073 C.3       12 UNK        -0.0989 
     18 CA         26.2270   27.1136    2.5191 C.3       5 UNK         0.0716 
     19 N          25.4039   26.8633    1.3479 N.am      5 UNK        -0.4135 
     20 C          24.6341   25.7926    1.1353 C.2       4 UNK         0.5031 
     21 O          24.3539   24.9601    1.9980 O.2       4 UNK        -0.5229 
     22 CA         24.1488   25.5876   -0.3146 C.3       4 UNK         0.0329 
     23 CB         22.8081   26.3033   -0.5439 C.3       4 UNK        -0.2001 
     24 N          25.1270   26.0358   -1.3192 N.am      4 UNK        -0.4303 
     25 C          26.3763   25.5578   -1.4218 C.2       3 UNK         0.5044 
     26 O          26.8019   24.6230   -0.7342 O.2       3 UNK        -0.5152 
     27 CA         27.3243   26.2508   -2.4155 C.3       3 UNK         0.0319 
     28 CB         27.2726   27.7892   -2.3350 C.3       3 UNK        -0.2001 
     29 N          28.6662   25.7870   -2.0932 N.am      3 UNK        -0.4354 
     30 C          29.7026   25.6337   -2.9196 C.2       2 UNK         0.4964 
     31 O          29.7218   26.0242   -4.0872 O.2       2 UNK        -0.5047 
     32 CA         30.9207   24.8895   -2.3365 C.3       2 UNK         0.0288 
     33 CB         31.9670   25.8935   -1.8236 C.3       2 UNK        -0.2113 
     34 N          30.5723   23.9648   -1.2474 N.am      2 UNK        -0.4145 
     35 C          29.8113   22.8668   -1.3738 C.2       1 UNK         0.5006 
     36 O          29.3599   22.4726   -2.4511 O.2       1 UNK        -0.5103 
     37 C          27.3532   28.0346    2.0311 C.2       5 UNK         0.5055 
     38 O          27.0942   28.9310    1.2224 O.2       5 UNK        -0.5220 
     39 N          28.5746   27.8214    2.5331 N.am      6 UNK        -0.4450 
     40 CA         29.7527   28.6415    2.2471 C.3       6 UNK         0.0367 
     41 CB         31.0114   27.7866    2.4665 C.3       6 UNK        -0.1929 
     42 C          29.7492   29.9333    3.0894 C.2       6 UNK         0.5070 
     43 O          30.7017   30.2034    3.8221 O.2       6 UNK        -0.5237 
     44 N          28.6698   30.7178    2.9627 N.am      7 UNK        -0.4739 
     45 CA         28.3693   31.9274    3.7402 C.3       7 UNK         0.0276 
     46 CB         26.9570   32.4122    3.3767 C.3       7 UNK        -0.1927 
     47 C          29.3921   33.0694    3.5898 C.2       7 UNK         0.5013 
     48 O          29.4601   33.9371    4.4605 O.2       7 UNK        -0.5193 
     49 N          30.1924   33.0299    2.5161 N.am      8 UNK        -0.4253 
     50 CA         31.3484   33.8999    2.2820 C.3       8 UNK         0.0242 
     51 CB         31.7059   33.8443    0.7859 C.3       8 UNK        -0.2000 
     52 C          32.5789   33.5497    3.1487 C.2       8 UNK         0.4948 
     53 O          33.5941   34.2368    3.0338 O.2       8 UNK        -0.5275 
     54 N          32.4874   32.4857    3.9645 N.am      9 UNK        -0.4246 
     55 CA         33.5337   31.8970    4.8101 C.3       9 UNK         0.0261 
     56 CB         34.1185   32.9148    5.8130 C.3       9 UNK        -0.1959 
     57 C          34.6123   31.1527    4.0022 C.2       9 UNK         0.5033 
     58 O          35.7188   30.9428    4.5030 O.2       9 UNK        -0.5390 
     59 N          34.2570   30.7100    2.7859 N.am      10 UNK        -0.4215 
     60 CA         35.0992   29.9088    1.8891 C.3       10 UNK         0.0240 
     61 CB         34.3980   29.7700    0.5273 C.3       10 UNK        -0.1982 
     62 C          35.4642   28.5237    2.4576 C.2       10 UNK         0.4970 
     63 O          36.4688   27.9455    2.0424 O.2       10 UNK        -0.4916 
     64 N          34.6576   28.0355    3.4071 N.am      11 UNK        -0.4279 
     65 CA         34.9191   26.8487    4.2277 C.3       11 UNK         0.1003 
     66 C          36.0497   27.0199    5.2873 C.2       11 UNK         0.5709 
     67 N          36.5580   28.2208    5.5455 N.am      11 UNK        -0.7358 
     68 O          36.4861   26.0345    5.8775 O.2       11 UNK        -0.4999 
     69 C69        33.6039   26.3119    4.8501 C.3       12 UNK        -0.0954 
     70 S70        32.7184   27.5409    5.8776 S.3       12 UNK        -0.2268 
     71 C71        31.6562   26.4690    6.8958 C.3       12 UNK         0.0203 
     72 H72        25.5550   22.6257    0.5289 H         1 UNK         0.0888 
     73 H73        25.2014   20.9159    0.7726 H         1 UNK         0.0888 
     74 H74        25.6490   21.9325    2.1469 H         1 UNK         0.0888 
     75 H75        27.6261   23.0870   -0.1859 H         1 UNK         0.3017 
     76 H76        29.6398   21.0338   -0.3699 H         1 UNK         0.0873 
     77 H77        30.2841   21.5503    1.8452 H         1 UNK         0.0745 
     78 H78        31.4502   22.3285    0.8381 H         1 UNK         0.0745 
     79 H79        28.4877   22.8652    3.4336 H         1 UNK         0.0705 
     80 H80        30.1258   22.5858    3.9807 H         1 UNK         0.0705 
     81 H81        31.4362   24.4661    5.0516 H         1 UNK         0.1334 
     82 H82        29.1039   27.4275    7.0972 H         1 UNK         0.1417 
     83 H83        27.2110   24.6881    4.3911 H         1 UNK         0.1562 
     84 H84        26.6320   27.0173    7.1530 H         1 UNK         0.0748 
     85 H85        25.8545   26.0555    5.9282 H         1 UNK         0.0748 
     86 H86        24.8013   28.5217    3.3602 H         1 UNK         0.0940 
     87 H87        24.6918   26.9353    4.0554 H         1 UNK         0.0940 
     88 H88        26.6765   26.1652    2.8087 H         1 UNK         0.0703 
     89 H89        25.5837   27.5058    0.5865 H         1 UNK         0.3081 
     90 H90        23.9944   24.5163   -0.4593 H         1 UNK         0.0719 
     91 H91        22.9026   27.3851   -0.4409 H         1 UNK         0.0809 
     92 H92        22.4103   26.0930   -1.5369 H         1 UNK         0.0809 
     93 H93        22.0612   25.9713    0.1787 H         1 UNK         0.0809 
     94 H94        24.8420   26.7897   -1.9276 H         1 UNK         0.2990 
     95 H95        27.0562   25.9217   -3.4214 H         1 UNK         0.0690 
     96 H96        26.2959   28.1762   -2.6260 H         1 UNK         0.0788 
     97 H97        28.0034   28.2419   -3.0056 H         1 UNK         0.0788 
     98 H98        27.4859   28.1469   -1.3275 H         1 UNK         0.0788 
     99 H99        28.7281   25.3667   -1.1746 H         1 UNK         0.2993 
    100 H100       31.3645   24.3054   -3.1455 H         1 UNK         0.0949 
    101 H101       32.8685   25.3864   -1.4787 H         1 UNK         0.0767 
    102 H102       32.2672   26.5826   -2.6144 H         1 UNK         0.0767 
    103 H103       31.5814   26.4930   -0.9976 H         1 UNK         0.0767 
    104 H104       30.8790   24.2161   -0.3163 H         1 UNK         0.3013 
    105 H105       28.6945   27.1042    3.2359 H         1 UNK         0.3121 
    106 H106       29.7357   28.9412    1.1970 H         1 UNK         0.0774 
    107 H107       31.9190   28.3640    2.2945 H         1 UNK         0.0815 
    108 H108       31.0512   27.4029    3.4849 H         1 UNK         0.0815 
    109 H109       31.0363   26.9340    1.7880 H         1 UNK         0.0815 
    110 H110       27.9475   30.3976    2.3247 H         1 UNK         0.2987 
    111 H111       28.3710   31.6404    4.7941 H         1 UNK         0.0949 
    112 H112       26.8821   32.6811    2.3223 H         1 UNK         0.0806 
    113 H113       26.2101   31.6446    3.5821 H         1 UNK         0.0806 
    114 H114       26.6823   33.2928    3.9593 H         1 UNK         0.0806 
    115 H115       30.0432   32.2827    1.8538 H         1 UNK         0.3010 
    116 H116       31.0637   34.9249    2.5291 H         1 UNK         0.0829 
    117 H117       30.8609   34.1412    0.1642 H         1 UNK         0.0813 
    118 H118       32.5276   34.5230    0.5528 H         1 UNK         0.0813 
    119 H119       32.0143   32.8438    0.4798 H         1 UNK         0.0813 
    120 H120       31.6221   31.9521    3.9522 H         1 UNK         0.3038 
    121 H121       33.0292   31.1263    5.3954 H         1 UNK         0.0769 
    122 H122       34.7368   33.6650    5.3198 H         1 UNK         0.0811 
    123 H123       34.7481   32.4153    6.5503 H         1 UNK         0.0811 
    124 H124       33.3301   33.4325    6.3591 H         1 UNK         0.0811 
    125 H125       33.3235   30.9221    2.4667 H         1 UNK         0.3204 
    126 H126       36.0340   30.4534    1.7408 H         1 UNK         0.0748 
    127 H127       35.0177   29.2095   -0.1742 H         1 UNK         0.0771 
    128 H128       33.4462   29.2446    0.6100 H         1 UNK         0.0771 
    129 H129       34.2066   30.7448    0.0779 H         1 UNK         0.0771 
    130 H130       33.8637   28.5865    3.6960 H         1 UNK         0.2980 
    131 H131       35.2819   26.0742    3.5495 H         1 UNK         0.0545 
    132 H132       36.2141   29.0530    5.0797 H         1 UNK         0.3459 
    133 H133       37.2921   28.3022    6.2303 H         1 UNK         0.3459 
    134 H134       32.9356   25.9958    4.0486 H         1 UNK         0.0616 
    135 H135       33.8014   25.4167    5.4422 H         1 UNK         0.0616 
    136 H136       31.3694   27.0243    7.7901 H         1 UNK         0.0634 
    137 H137       32.2262   25.6083    7.2483 H         1 UNK         0.0634 
@<TRIPOS>BOND
     1    1    2 1    
     2    1   72 1    
     3    1   73 1    
     4    1   74 1    
     5    2    3 2    
     6    2    4 am   BACKBONE|DICT|INTERRES
     7    4    5 1    
     8    4   75 1    
     9    5    6 1    
    10    5   35 1    
    11    5   76 1    
    12    6    7 1    
    13    6   77 1    
    14    6   78 1    
    15    7    8 1    
    16    8    9 1    
    17    8   79 1    
    18    8   80 1    
    19    9   10 ar   
    20    9   14 ar   
    21   10   11 ar   
    22   10   81 1    
    23   11   12 ar   
    24   11   71 1    
    25   12   13 ar   
    26   12   82 1    
    27   13   14 ar   
    28   13   15 1    
    29   14   83 1    
    30   15   16 1    
    31   15   84 1    
    32   15   85 1    
    33   16   17 1    
    34   17   18 1    
    35   17   86 1    
    36   17   87 1    
    37   18   19 1    
    38   18   37 1    
    39   18   88 1    
    40   19   20 am   BACKBONE|DICT|INTERRES
    41   19   89 1    
    42   20   21 2    
    43   20   22 1    
    44   22   23 1    
    45   22   24 1    
    46   22   90 1    
    47   23   91 1    
    48   23   92 1    
    49   23   93 1    
    50   24   25 am   BACKBONE|DICT|INTERRES
    51   24   94 1    
    52   25   26 2    
    53   25   27 1    
    54   27   28 1    
    55   27   29 1    
    56   27   95 1    
    57   28   96 1    
    58   28   97 1    
    59   28   98 1    
    60   29   30 am   BACKBONE|DICT|INTERRES
    61   29   99 1    
    62   30   31 2    
    63   30   32 1    
    64   32   33 1    
    65   32   34 1    
    66   32  100 1    
    67   33  101 1    
    68   33  102 1    
    69   33  103 1    
    70   34   35 am   BACKBONE|DICT|INTERRES
    71   34  104 1    
    72   35   36 2    
    73   37   38 2    
    74   37   39 am   BACKBONE|DICT|INTERRES
    75   39   40 1    
    76   39  105 1    
    77   40   41 1    
    78   40   42 1    
    79   40  106 1    
    80   41  107 1    
    81   41  108 1    
    82   41  109 1    
    83   42   43 2    
    84   42   44 am   BACKBONE|DICT|INTERRES
    85   44   45 1    
    86   44  110 1    
    87   45   46 1    
    88   45   47 1    
    89   45  111 1    
    90   46  112 1    
    91   46  113 1    
    92   46  114 1    
    93   47   48 2    
    94   47   49 am   BACKBONE|DICT|INTERRES
    95   49   50 1    
    96   49  115 1    
    97   50   51 1    
    98   50   52 1    
    99   50  116 1    
   100   51  117 1    
   101   51  118 1    
   102   51  119 1    
   103   52   53 2    
   104   52   54 am   BACKBONE|DICT|INTERRES
   105   54   55 1    
   106   54  120 1    
   107   55   56 1    
   108   55   57 1    
   109   55  121 1    
   110   56  122 1    
   111   56  123 1    
   112   56  124 1    
   113   57   58 2    
   114   57   59 am   BACKBONE|DICT|INTERRES
   115   59   60 1    
   116   59  125 1    
   117   60   61 1    
   118   60   62 1    
   119   60  126 1    
   120   61  127 1    
   121   61  128 1    
   122   61  129 1    
   123   62   63 2    
   124   62   64 am   BACKBONE|DICT|INTERRES
   125   64   65 1    
   126   64  130 1    
   127   65   66 1    
   128   65   69 1    
   129   65  131 1    
   130   66   67 am   BACKBONE|DICT|INTERRES
   131   66   68 2    
   132   67  132 1    
   133   67  133 1    
   134   69   70 1    
   135   69  134 1    
   136   69  135 1    
   137   70   71 1    
   138   71  136 1    
   139   71  137 1    
@<TRIPOS>SUBSTRUCTURE
     1 UNK         1 GROUP             0       ****    0 ROOT    
