@<TRIPOS>MOLECULE
3R136
137   139    1
SMALL
USER_CHARGES


@<TRIPOS>ATOM
      1 CA         31.7363   22.5793   -1.8615 C.3       0 UNK        -0.1979 
      2 C          31.2805   24.0269   -1.7604 C.2       0 UNK         0.4864 
      3 O          31.4568   24.7947   -2.7082 O.2       0 UNK        -0.5359 
      4 N          30.6792   24.4076   -0.6254 N.am      1 UNK        -0.4318 
      5 CA         30.2043   25.7640   -0.3181 C.3       1 UNK         0.0824 
      6 C6         30.1277   26.0083    1.2092 C.3       12 UNK        -0.0944 
      7 S7         31.7574   25.8258    2.0056 S.3       12 UNK        -0.2672 
      8 C8         31.4805   24.3985    3.0992 C.3       12 UNK         0.0333 
      9 C9         30.8471   24.8291    4.4128 C.ar      12 UNK        -0.0807 
     10 C10        31.6610   25.2725    5.4578 C.ar      12 UNK        -0.0894 
     11 C11        31.1044   25.6862    6.6697 C.ar      12 UNK        -0.0804 
     12 C12        29.7170   25.6417    6.8383 C.ar      12 UNK        -0.0824 
     13 C13        28.8905   25.1869    5.8037 C.ar      12 UNK        -0.0762 
     14 C14        29.4611   24.7816    4.5927 C.ar      12 UNK        -0.0782 
     15 C15        27.3835   25.1243    6.0031 C.3       12 UNK         0.0230 
     16 S16        26.6197   26.7491    5.7092 S.3       12 UNK        -0.2608 
     17 C17        25.5645   26.4545    4.2442 C.3       12 UNK        -0.0989 
     18 CA         26.2860   26.7008    2.8885 C.3       5 UNK         0.0716 
     19 N          25.5861   26.1013    1.7479 N.am      5 UNK        -0.4135 
     20 C          24.3703   26.4454    1.2961 C.2       4 UNK         0.5031 
     21 O          23.6456   27.2731    1.8501 O.2       4 UNK        -0.5229 
     22 CA         23.8667   25.7673    0.0105 C.3       4 UNK         0.0329 
     23 CB         23.3383   26.8027   -1.0011 C.3       4 UNK        -0.2001 
     24 N          24.8936   24.9520   -0.6437 N.am      4 UNK        -0.4303 
     25 C          24.6767   23.7646   -1.2288 C.2       3 UNK         0.5044 
     26 O          23.6026   23.1630   -1.1715 O.2       3 UNK        -0.5152 
     27 CA         25.8546   23.1454   -2.0163 C.3       3 UNK         0.0319 
     28 CB         25.3860   22.2817   -3.2067 C.3       3 UNK        -0.2001 
     29 N          26.8519   24.1359   -2.4463 N.am      3 UNK        -0.4354 
     30 C          26.6597   25.2014   -3.2420 C.2       2 UNK         0.4964 
     31 O          25.6180   25.4094   -3.8649 O.2       2 UNK        -0.5047 
     32 CA         27.8030   26.2348   -3.3290 C.3       2 UNK         0.0288 
     33 CB         27.2639   27.6764   -3.2163 C.3       2 UNK        -0.2113 
     34 N          28.9008   26.0253   -2.3714 N.am      2 UNK        -0.4145 
     35 C          28.8646   26.0525   -1.0302 C.2       1 UNK         0.5006 
     36 O          27.8344   26.2382   -0.3725 O.2       1 UNK        -0.5103 
     37 C          26.6380   28.1791    2.6059 C.2       5 UNK         0.5055 
     38 O          26.3463   29.0659    3.4121 O.2       5 UNK        -0.5220 
     39 N          27.3022   28.4235    1.4664 N.am      6 UNK        -0.4450 
     40 CA         27.9752   29.6895    1.1581 C.3       6 UNK         0.0367 
     41 CB         28.1835   29.8052   -0.3621 C.3       6 UNK        -0.1929 
     42 C          29.2972   29.7754    1.9451 C.2       6 UNK         0.5070 
     43 O          30.3767   29.7019    1.3566 O.2       6 UNK        -0.5237 
     44 N          29.1732   29.8664    3.2769 N.am      7 UNK        -0.4739 
     45 CA         30.2295   29.7068    4.2832 C.3       7 UNK         0.0276 
     46 CB         29.6300   29.9558    5.6753 C.3       7 UNK        -0.1927 
     47 C          31.4805   30.5728    4.0763 C.2       7 UNK         0.5013 
     48 O          32.5701   30.1497    4.4605 O.2       7 UNK        -0.5193 
     49 N          31.3258   31.7347    3.4261 N.am      8 UNK        -0.4253 
     50 CA         32.4091   32.6311    3.0059 C.3       8 UNK         0.0242 
     51 CB         31.8002   33.8626    2.3162 C.3       8 UNK        -0.2000 
     52 C          33.4680   31.9734    2.0958 C.2       8 UNK         0.4948 
     53 O          34.5937   32.4690    2.0374 O.2       8 UNK        -0.5275 
     54 N          33.1126   30.8638    1.4304 N.am      9 UNK        -0.4246 
     55 CA         34.0315   30.0148    0.6706 C.3       9 UNK         0.0261 
     56 CB         33.2083   29.0846   -0.2376 C.3       9 UNK        -0.1959 
     57 C          34.9913   29.1857    1.5505 C.2       9 UNK         0.5033 
     58 O          35.9612   28.6493    1.0113 O.2       9 UNK        -0.5390 
     59 N          34.7155   29.0671    2.8574 N.am      10 UNK        -0.4215 
     60 CA         35.4642   28.2389    3.7984 C.3       10 UNK         0.0240 
     61 CB         34.7918   26.8553    3.8988 C.3       10 UNK        -0.1982 
     62 C          35.5984   28.9651    5.1456 C.2       10 UNK         0.4970 
     63 O          36.5025   29.7881    5.2938 O.2       10 UNK        -0.4916 
     64 N          34.7297   28.6263    6.1066 N.am      11 UNK        -0.4279 
     65 CA         34.7248   29.1343    7.4881 C.3       11 UNK         0.1003 
     66 C          34.4049   30.6480    7.6622 C.2       11 UNK         0.5709 
     67 N          33.8028   31.3211    6.6920 N.am      11 UNK        -0.7358 
     68 O          34.7267   31.2248    8.6988 O.2       11 UNK        -0.4999 
     69 C69        33.8503   28.2471    8.4182 C.3       12 UNK        -0.0954 
     70 S70        32.1530   27.9824    7.7874 S.3       12 UNK        -0.2268 
     71 C71        32.0126   26.1678    7.7907 C.3       12 UNK         0.0203 
     72 H72        31.5183   22.0182   -0.9530 H         1 UNK         0.0888 
     73 H73        31.2362   22.0856   -2.6942 H         1 UNK         0.0888 
     74 H74        32.8112   22.5371   -2.0357 H         1 UNK         0.0888 
     75 H75        30.5540   23.7298    0.1121 H         1 UNK         0.3017 
     76 H76        30.9257   26.4792   -0.7211 H         1 UNK         0.0873 
     77 H77        29.4022   25.3388    1.6715 H         1 UNK         0.0745 
     78 H78        29.7834   27.0196    1.4172 H         1 UNK         0.0745 
     79 H79        30.8682   23.6479    2.5976 H         1 UNK         0.0705 
     80 H80        32.4415   23.9208    3.2960 H         1 UNK         0.0705 
     81 H81        32.7332   25.2933    5.3272 H         1 UNK         0.1334 
     82 H82        29.2801   25.9626    7.7743 H         1 UNK         0.1417 
     83 H83        28.8265   24.4253    3.7937 H         1 UNK         0.1562 
     84 H84        27.1612   24.8115    7.0244 H         1 UNK         0.0748 
     85 H85        26.9448   24.3652    5.3543 H         1 UNK         0.0748 
     86 H86        24.6838   27.0938    4.3283 H         1 UNK         0.0940 
     87 H87        25.1839   25.4332    4.2875 H         1 UNK         0.0940 
     88 H88        27.2431   26.1800    2.9379 H         1 UNK         0.0703 
     89 H89        26.1122   25.4181    1.2227 H         1 UNK         0.3081 
     90 H90        23.0337   25.1322    0.3189 H         1 UNK         0.0719 
     91 H91        22.5348   27.4030   -0.5725 H         1 UNK         0.0809 
     92 H92        24.1251   27.4869   -1.3215 H         1 UNK         0.0809 
     93 H93        22.9368   26.3173   -1.8910 H         1 UNK         0.0809 
     94 H94        25.8049   25.3805   -0.7575 H         1 UNK         0.2990 
     95 H95        26.3672   22.4860   -1.3144 H         1 UNK         0.0690 
     96 H96        26.2322   21.8550   -3.7450 H         1 UNK         0.0788 
     97 H97        24.7920   22.8577   -3.9170 H         1 UNK         0.0788 
     98 H98        24.7675   21.4497   -2.8679 H         1 UNK         0.0788 
     99 H99        27.7519   24.0644   -1.9941 H         1 UNK         0.2993 
    100 H100       28.2397   26.1171   -4.3219 H         1 UNK         0.0949 
    101 H101       26.7235   27.8319   -2.2822 H         1 UNK         0.0767 
    102 H102       28.0697   28.4086   -3.2673 H         1 UNK         0.0767 
    103 H103       26.5730   27.9023   -4.0296 H         1 UNK         0.0767 
    104 H104       29.7991   25.7808   -2.7843 H         1 UNK         0.3013 
    105 H105       27.4845   27.6483    0.8338 H         1 UNK         0.3121 
    106 H106       27.3425   30.5228    1.4716 H         1 UNK         0.0774 
    107 H107       28.6693   30.7481   -0.6161 H         1 UNK         0.0815 
    108 H108       28.8121   29.0040   -0.7501 H         1 UNK         0.0815 
    109 H109       27.2327   29.7786   -0.8937 H         1 UNK         0.0815 
    110 H110       28.2231   29.8748    3.6351 H         1 UNK         0.2987 
    111 H111       30.5605   28.6664    4.2365 H         1 UNK         0.0949 
    112 H112       28.8727   29.2096    5.9182 H         1 UNK         0.0806 
    113 H113       30.3950   29.9014    6.4501 H         1 UNK         0.0806 
    114 H114       29.1689   30.9415    5.7459 H         1 UNK         0.0806 
    115 H115       30.3918   31.9829    3.1344 H         1 UNK         0.3010 
    116 H116       32.9255   32.9613    3.9096 H         1 UNK         0.0829 
    117 H117       31.2448   33.5878    1.4184 H         1 UNK         0.0813 
    118 H118       32.5778   34.5664    2.0156 H         1 UNK         0.0813 
    119 H119       31.1227   34.3976    2.9819 H         1 UNK         0.0813 
    120 H120       32.1556   30.5269    1.5115 H         1 UNK         0.3038 
    121 H121       34.6440   30.6585    0.0359 H         1 UNK         0.0769 
    122 H122       32.5501   29.6506   -0.8969 H         1 UNK         0.0811 
    123 H123       32.5896   28.4010    0.3456 H         1 UNK         0.0811 
    124 H124       33.8575   28.4770   -0.8693 H         1 UNK         0.0811 
    125 H125       33.9194   29.5649    3.2505 H         1 UNK         0.3204 
    126 H126       36.4836   28.0913    3.4354 H         1 UNK         0.0748 
    127 H127       33.7285   26.9460    4.1194 H         1 UNK         0.0771 
    128 H128       34.8815   26.3104    2.9587 H         1 UNK         0.0771 
    129 H129       35.2518   26.2393    4.6727 H         1 UNK         0.0771 
    130 H130       33.9764   27.9954    5.8789 H         1 UNK         0.2980 
    131 H131       35.7519   29.0303    7.8433 H         1 UNK         0.0545 
    132 H132       33.4818   30.8376    5.8566 H         1 UNK         0.3459 
    133 H133       33.6109   32.3010    6.8174 H         1 UNK         0.3459 
    134 H134       33.7849   28.6732    9.4210 H         1 UNK         0.0616 
    135 H135       34.3434   27.2838    8.5510 H         1 UNK         0.0616 
    136 H136       32.9967   25.7105    7.6800 H         1 UNK         0.0634 
    137 H137       31.6283   25.8394    8.7575 H         1 UNK         0.0634 
@<TRIPOS>BOND
     1    1    2 1    
     2    1   72 1    
     3    1   73 1    
     4    1   74 1    
     5    2    3 2    
     6    2    4 am   BACKBONE|DICT|INTERRES
     7    4    5 1    
     8    4   75 1    
     9    5    6 1    
    10    5   35 1    
    11    5   76 1    
    12    6    7 1    
    13    6   77 1    
    14    6   78 1    
    15    7    8 1    
    16    8    9 1    
    17    8   79 1    
    18    8   80 1    
    19    9   10 ar   
    20    9   14 ar   
    21   10   11 ar   
    22   10   81 1    
    23   11   12 ar   
    24   11   71 1    
    25   12   13 ar   
    26   12   82 1    
    27   13   14 ar   
    28   13   15 1    
    29   14   83 1    
    30   15   16 1    
    31   15   84 1    
    32   15   85 1    
    33   16   17 1    
    34   17   18 1    
    35   17   86 1    
    36   17   87 1    
    37   18   19 1    
    38   18   37 1    
    39   18   88 1    
    40   19   20 am   BACKBONE|DICT|INTERRES
    41   19   89 1    
    42   20   21 2    
    43   20   22 1    
    44   22   23 1    
    45   22   24 1    
    46   22   90 1    
    47   23   91 1    
    48   23   92 1    
    49   23   93 1    
    50   24   25 am   BACKBONE|DICT|INTERRES
    51   24   94 1    
    52   25   26 2    
    53   25   27 1    
    54   27   28 1    
    55   27   29 1    
    56   27   95 1    
    57   28   96 1    
    58   28   97 1    
    59   28   98 1    
    60   29   30 am   BACKBONE|DICT|INTERRES
    61   29   99 1    
    62   30   31 2    
    63   30   32 1    
    64   32   33 1    
    65   32   34 1    
    66   32  100 1    
    67   33  101 1    
    68   33  102 1    
    69   33  103 1    
    70   34   35 am   BACKBONE|DICT|INTERRES
    71   34  104 1    
    72   35   36 2    
    73   37   38 2    
    74   37   39 am   BACKBONE|DICT|INTERRES
    75   39   40 1    
    76   39  105 1    
    77   40   41 1    
    78   40   42 1    
    79   40  106 1    
    80   41  107 1    
    81   41  108 1    
    82   41  109 1    
    83   42   43 2    
    84   42   44 am   BACKBONE|DICT|INTERRES
    85   44   45 1    
    86   44  110 1    
    87   45   46 1    
    88   45   47 1    
    89   45  111 1    
    90   46  112 1    
    91   46  113 1    
    92   46  114 1    
    93   47   48 2    
    94   47   49 am   BACKBONE|DICT|INTERRES
    95   49   50 1    
    96   49  115 1    
    97   50   51 1    
    98   50   52 1    
    99   50  116 1    
   100   51  117 1    
   101   51  118 1    
   102   51  119 1    
   103   52   53 2    
   104   52   54 am   BACKBONE|DICT|INTERRES
   105   54   55 1    
   106   54  120 1    
   107   55   56 1    
   108   55   57 1    
   109   55  121 1    
   110   56  122 1    
   111   56  123 1    
   112   56  124 1    
   113   57   58 2    
   114   57   59 am   BACKBONE|DICT|INTERRES
   115   59   60 1    
   116   59  125 1    
   117   60   61 1    
   118   60   62 1    
   119   60  126 1    
   120   61  127 1    
   121   61  128 1    
   122   61  129 1    
   123   62   63 2    
   124   62   64 am   BACKBONE|DICT|INTERRES
   125   64   65 1    
   126   64  130 1    
   127   65   66 1    
   128   65   69 1    
   129   65  131 1    
   130   66   67 am   BACKBONE|DICT|INTERRES
   131   66   68 2    
   132   67  132 1    
   133   67  133 1    
   134   69   70 1    
   135   69  134 1    
   136   69  135 1    
   137   70   71 1    
   138   71  136 1    
   139   71  137 1    
@<TRIPOS>SUBSTRUCTURE
     1 UNK         1 GROUP             0       ****    0 ROOT    
