@<TRIPOS>MOLECULE
3R136
137   139    1
SMALL
USER_CHARGES


@<TRIPOS>ATOM
      1 CA         27.8558   28.5797   -1.2636 C.3       0 UNK        -0.1979 
      2 C          28.1100   27.2446   -0.5826 C.2       0 UNK         0.4864 
      3 O          27.4164   26.9069    0.3797 O.2       0 UNK        -0.5359 
      4 N          29.1013   26.4895   -1.0781 N.am      1 UNK        -0.4318 
      5 CA         29.5063   25.1572   -0.6095 C.3       1 UNK         0.0824 
      6 C6         30.7748   24.6701   -1.3712 C.3       12 UNK        -0.0944 
      7 S7         31.1637   22.8854   -1.2577 S.3       12 UNK        -0.2672 
      8 C8         32.6786   22.8761   -0.2507 C.3       12 UNK         0.0333 
      9 C9         32.4340   23.2629    1.2023 C.ar      12 UNK        -0.0807 
     10 C10        33.1900   24.2813    1.7886 C.ar      12 UNK        -0.0894 
     11 C11        33.0332   24.5978    3.1412 C.ar      12 UNK        -0.0804 
     12 C12        32.0977   23.8960    3.9077 C.ar      12 UNK        -0.0824 
     13 C13        31.3352   22.8719    3.3339 C.ar      12 UNK        -0.0762 
     14 C14        31.5078   22.5614    1.9816 C.ar      12 UNK        -0.0782 
     15 C15        30.3671   22.0581    4.1842 C.3       12 UNK         0.0230 
     16 S16        28.6279   22.5227    3.9070 S.3       12 UNK        -0.2608 
     17 C17        28.6023   24.2256    4.5554 C.3       12 UNK        -0.0989 
     18 CA         28.3575   25.2599    3.4225 C.3       5 UNK         0.0716 
     19 N          27.0044   25.1855    2.8437 N.am      5 UNK        -0.4135 
     20 C          25.8687   25.5268    3.4759 C.2       4 UNK         0.5031 
     21 O          25.8262   25.8183    4.6727 O.2       4 UNK        -0.5229 
     22 CA         24.5595   25.5899    2.6691 C.3       4 UNK         0.0329 
     23 CB         23.6699   26.7649    3.1413 C.3       4 UNK        -0.2001 
     24 N          24.7592   25.6727    1.2174 N.am      4 UNK        -0.4303 
     25 C          23.7977   25.3761    0.3292 C.2       3 UNK         0.5044 
     26 O          22.6938   24.9227    0.6362 O.2       3 UNK        -0.5152 
     27 CA         24.1049   25.6340   -1.1534 C.3       3 UNK         0.0319 
     28 CB         24.2507   27.1382   -1.4406 C.3       3 UNK        -0.2001 
     29 N          25.2956   24.9151   -1.5992 N.am      3 UNK        -0.4354 
     30 C          25.3704   23.5834   -1.7452 C.2       2 UNK         0.4964 
     31 O          24.4210   22.8189   -1.5701 O.2       2 UNK        -0.5047 
     32 CA         26.7279   22.9969   -2.1724 C.3       2 UNK         0.0288 
     33 CB         26.7173   22.6453   -3.6694 C.3       2 UNK        -0.2113 
     34 N          27.8638   23.8800   -1.8980 N.am      2 UNK        -0.4145 
     35 C          28.3147   24.1780   -0.6713 C.2       1 UNK         0.5006 
     36 O          27.8009   23.7673    0.3704 O.2       1 UNK        -0.5103 
     37 C          28.6944   26.7088    3.8434 C.2       5 UNK         0.5055 
     38 O          29.1547   26.9431    4.9616 O.2       5 UNK        -0.5220 
     39 N          28.4108   27.6598    2.9453 N.am      6 UNK        -0.4450 
     40 CA         28.4801   29.0974    3.1948 C.3       6 UNK         0.0367 
     41 CB         27.0609   29.6226    3.4847 C.3       6 UNK        -0.1929 
     42 C          29.1539   29.8156    2.0182 C.2       6 UNK         0.5070 
     43 O          28.6655   30.8523    1.5644 O.2       6 UNK        -0.5237 
     44 N          30.2720   29.2597    1.5307 N.am      7 UNK        -0.4739 
     45 CA         31.1250   29.8521    0.4948 C.3       7 UNK         0.0276 
     46 CB         32.0119   28.7554   -0.1229 C.3       7 UNK        -0.1927 
     47 C          31.9426   31.0370    1.0503 C.2       7 UNK         0.5013 
     48 O          33.1654   30.9455    1.1760 O.2       7 UNK        -0.5193 
     49 N          31.2274   32.1182    1.3903 N.am      8 UNK        -0.4253 
     50 CA         31.6979   33.3539    2.0241 C.3       8 UNK         0.0242 
     51 CB         32.7060   34.0899    1.1113 C.3       8 UNK        -0.2000 
     52 C          32.2284   33.1191    3.4532 C.2       8 UNK         0.4948 
     53 O          31.9711   32.0706    4.0529 O.2       8 UNK        -0.5275 
     54 N          32.9619   34.1076    3.9844 N.am      9 UNK        -0.4246 
     55 CA         33.5338   34.1245    5.3377 C.3       9 UNK         0.0261 
     56 CB         34.1732   35.4997    5.5924 C.3       9 UNK        -0.1959 
     57 C          34.5445   32.9982    5.6317 C.2       9 UNK         0.5033 
     58 O          34.8320   32.7426    6.8018 O.2       9 UNK        -0.5390 
     59 N          35.0516   32.3377    4.5815 N.am      10 UNK        -0.4215 
     60 CA         35.8891   31.1418    4.6655 C.3       10 UNK         0.0240 
     61 CB         36.4643   30.8308    3.2740 C.3       10 UNK        -0.1982 
     62 C          35.1443   29.9139    5.2223 C.2       10 UNK         0.4970 
     63 O          35.7942   29.0596    5.8271 O.2       10 UNK        -0.4916 
     64 N          33.8215   29.8445    5.0136 N.am      11 UNK        -0.4279 
     65 CA         32.9581   28.7483    5.4828 C.3       11 UNK         0.1003 
     66 C          31.8402   29.2446    6.4371 C.2       11 UNK         0.5709 
     67 N          31.3191   30.4560    6.2773 N.am      11 UNK        -0.7358 
     68 O          31.4582   28.5278    7.3587 O.2       11 UNK        -0.4999 
     69 C69        32.3538   27.9275    4.3135 C.3       12 UNK        -0.0954 
     70 S70        33.6081   27.3159    3.1418 S.3       12 UNK        -0.2268 
     71 C71        33.9338   25.6459    3.7800 C.3       12 UNK         0.0203 
     72 H72        27.5001   29.3134   -0.5409 H         1 UNK         0.0888 
     73 H73        28.7619   28.9733   -1.7233 H         1 UNK         0.0888 
     74 H74        27.0973   28.4707   -2.0378 H         1 UNK         0.0888 
     75 H75        29.6151   26.8388   -1.8744 H         1 UNK         0.3017 
     76 H76        29.7809   25.2523    0.4420 H         1 UNK         0.0873 
     77 H77        31.6390   25.2488   -1.0407 H         1 UNK         0.0745 
     78 H78        30.6734   24.8876   -2.4358 H         1 UNK         0.0745 
     79 H79        33.1040   21.8720   -0.2739 H         1 UNK         0.0705 
     80 H80        33.4177   23.5308   -0.7152 H         1 UNK         0.0705 
     81 H81        33.9259   24.8141    1.2015 H         1 UNK         0.1334 
     82 H82        31.9864   24.1261    4.9585 H         1 UNK         0.1417 
     83 H83        30.9306   21.7609    1.5384 H         1 UNK         0.1562 
     84 H84        30.6035   22.1595    5.2446 H         1 UNK         0.0748 
     85 H85        30.4863   20.9990    3.9507 H         1 UNK         0.0748 
     86 H86        29.5462   24.4200    5.0656 H         1 UNK         0.0940 
     87 H87        27.8373   24.2976    5.3292 H         1 UNK         0.0940 
     88 H88        29.0526   25.0282    2.6158 H         1 UNK         0.0703 
     89 H89        26.9746   24.8848    1.8750 H         1 UNK         0.3081 
     90 H90        24.0384   24.6557    2.8890 H         1 UNK         0.0719 
     91 H91        22.7061   26.7776    2.6330 H         1 UNK         0.0809 
     92 H92        24.1544   27.7256    2.9626 H         1 UNK         0.0809 
     93 H93        23.4558   26.7002    4.2088 H         1 UNK         0.0809 
     94 H94        25.6398   26.0619    0.8916 H         1 UNK         0.2990 
     95 H95        23.2576   25.2681   -1.7378 H         1 UNK         0.0690 
     96 H96        24.4480   27.3251   -2.4963 H         1 UNK         0.0788 
     97 H97        25.0537   27.5927   -0.8613 H         1 UNK         0.0788 
     98 H98        23.3325   27.6690   -1.1855 H         1 UNK         0.0788 
     99 H99        26.1291   25.4600   -1.7567 H         1 UNK         0.2993 
    100 H100       26.8737   22.0757   -1.6036 H         1 UNK         0.0949 
    101 H101       27.6443   22.1554   -3.9686 H         1 UNK         0.0767 
    102 H102       25.9013   21.9600   -3.9039 H         1 UNK         0.0767 
    103 H103       26.5876   23.5315   -4.2920 H         1 UNK         0.0767 
    104 H104       28.3424   24.2669   -2.6983 H         1 UNK         0.3013 
    105 H105       28.0356   27.3814    2.0386 H         1 UNK         0.3121 
    106 H106       29.1032   29.3014    4.0684 H         1 UNK         0.0774 
    107 H107       27.0756   30.6876    3.7195 H         1 UNK         0.0815 
    108 H108       26.3996   29.4826    2.6285 H         1 UNK         0.0815 
    109 H109       26.6161   29.1095    4.3376 H         1 UNK         0.0815 
    110 H110       30.6180   28.4178    1.9676 H         1 UNK         0.2987 
    111 H111       30.4874   30.2446   -0.3004 H         1 UNK         0.0949 
    112 H112       32.6939   28.3243    0.6084 H         1 UNK         0.0806 
    113 H113       31.4175   27.9454   -0.5414 H         1 UNK         0.0806 
    114 H114       32.6217   29.1603   -0.9315 H         1 UNK         0.0806 
    115 H115       30.2176   32.0157    1.3314 H         1 UNK         0.3010 
    116 H116       30.8160   33.9875    2.1288 H         1 UNK         0.0829 
    117 H117       32.3331   34.1580    0.0892 H         1 UNK         0.0813 
    118 H118       32.8824   35.1119    1.4476 H         1 UNK         0.0813 
    119 H119       33.6712   33.5831    1.0768 H         1 UNK         0.0813 
    120 H120       33.1244   34.9317    3.4236 H         1 UNK         0.3038 
    121 H121       32.7077   33.9963    6.0403 H         1 UNK         0.0769 
    122 H122       34.5788   35.5618    6.6035 H         1 UNK         0.0811 
    123 H123       33.4436   36.3034    5.4908 H         1 UNK         0.0811 
    124 H124       34.9930   35.6981    4.9007 H         1 UNK         0.0811 
    125 H125       34.7557   32.6197    3.6584 H         1 UNK         0.3204 
    126 H126       36.7193   31.3591    5.3409 H         1 UNK         0.0748 
    127 H127       37.1177   29.9578    3.3085 H         1 UNK         0.0771 
    128 H128       35.6755   30.6174    2.5506 H         1 UNK         0.0771 
    129 H129       37.0563   31.6627    2.8922 H         1 UNK         0.0771 
    130 H130       33.3522   30.6016    4.5305 H         1 UNK         0.2980 
    131 H131       33.5532   28.0516    6.0758 H         1 UNK         0.0545 
    132 H132       31.5871   31.0516    5.4973 H         1 UNK         0.3459 
    133 H133       30.6061   30.7656    6.9171 H         1 UNK         0.3459 
    134 H134       31.6492   28.5427    3.7555 H         1 UNK         0.0616 
    135 H135       31.7866   27.0771    4.6943 H         1 UNK         0.0616 
    136 H136       34.9725   25.3925    3.5637 H         1 UNK         0.0634 
    137 H137       33.8423   25.6409    4.8672 H         1 UNK         0.0634 
@<TRIPOS>BOND
     1    1    2 1    
     2    1   72 1    
     3    1   73 1    
     4    1   74 1    
     5    2    3 2    
     6    2    4 am   BACKBONE|DICT|INTERRES
     7    4    5 1    
     8    4   75 1    
     9    5    6 1    
    10    5   35 1    
    11    5   76 1    
    12    6    7 1    
    13    6   77 1    
    14    6   78 1    
    15    7    8 1    
    16    8    9 1    
    17    8   79 1    
    18    8   80 1    
    19    9   10 ar   
    20    9   14 ar   
    21   10   11 ar   
    22   10   81 1    
    23   11   12 ar   
    24   11   71 1    
    25   12   13 ar   
    26   12   82 1    
    27   13   14 ar   
    28   13   15 1    
    29   14   83 1    
    30   15   16 1    
    31   15   84 1    
    32   15   85 1    
    33   16   17 1    
    34   17   18 1    
    35   17   86 1    
    36   17   87 1    
    37   18   19 1    
    38   18   37 1    
    39   18   88 1    
    40   19   20 am   BACKBONE|DICT|INTERRES
    41   19   89 1    
    42   20   21 2    
    43   20   22 1    
    44   22   23 1    
    45   22   24 1    
    46   22   90 1    
    47   23   91 1    
    48   23   92 1    
    49   23   93 1    
    50   24   25 am   BACKBONE|DICT|INTERRES
    51   24   94 1    
    52   25   26 2    
    53   25   27 1    
    54   27   28 1    
    55   27   29 1    
    56   27   95 1    
    57   28   96 1    
    58   28   97 1    
    59   28   98 1    
    60   29   30 am   BACKBONE|DICT|INTERRES
    61   29   99 1    
    62   30   31 2    
    63   30   32 1    
    64   32   33 1    
    65   32   34 1    
    66   32  100 1    
    67   33  101 1    
    68   33  102 1    
    69   33  103 1    
    70   34   35 am   BACKBONE|DICT|INTERRES
    71   34  104 1    
    72   35   36 2    
    73   37   38 2    
    74   37   39 am   BACKBONE|DICT|INTERRES
    75   39   40 1    
    76   39  105 1    
    77   40   41 1    
    78   40   42 1    
    79   40  106 1    
    80   41  107 1    
    81   41  108 1    
    82   41  109 1    
    83   42   43 2    
    84   42   44 am   BACKBONE|DICT|INTERRES
    85   44   45 1    
    86   44  110 1    
    87   45   46 1    
    88   45   47 1    
    89   45  111 1    
    90   46  112 1    
    91   46  113 1    
    92   46  114 1    
    93   47   48 2    
    94   47   49 am   BACKBONE|DICT|INTERRES
    95   49   50 1    
    96   49  115 1    
    97   50   51 1    
    98   50   52 1    
    99   50  116 1    
   100   51  117 1    
   101   51  118 1    
   102   51  119 1    
   103   52   53 2    
   104   52   54 am   BACKBONE|DICT|INTERRES
   105   54   55 1    
   106   54  120 1    
   107   55   56 1    
   108   55   57 1    
   109   55  121 1    
   110   56  122 1    
   111   56  123 1    
   112   56  124 1    
   113   57   58 2    
   114   57   59 am   BACKBONE|DICT|INTERRES
   115   59   60 1    
   116   59  125 1    
   117   60   61 1    
   118   60   62 1    
   119   60  126 1    
   120   61  127 1    
   121   61  128 1    
   122   61  129 1    
   123   62   63 2    
   124   62   64 am   BACKBONE|DICT|INTERRES
   125   64   65 1    
   126   64  130 1    
   127   65   66 1    
   128   65   69 1    
   129   65  131 1    
   130   66   67 am   BACKBONE|DICT|INTERRES
   131   66   68 2    
   132   67  132 1    
   133   67  133 1    
   134   69   70 1    
   135   69  134 1    
   136   69  135 1    
   137   70   71 1    
   138   71  136 1    
   139   71  137 1    
@<TRIPOS>SUBSTRUCTURE
     1 UNK         1 GROUP             0       ****    0 ROOT    
