@<TRIPOS>MOLECULE
3R136
137   139    1
SMALL
USER_CHARGES


@<TRIPOS>ATOM
      1 CA         32.2734   27.0918    2.0934 C.3       0 UNK        -0.1979 
      2 C          31.3625   26.5766    3.1929 C.2       0 UNK         0.4864 
      3 O          31.2989   27.1945    4.2530 O.2       0 UNK        -0.5359 
      4 N          30.6741   25.4494    2.9653 N.am      1 UNK        -0.4318 
      5 CA         29.7207   24.8687    3.9178 C.3       1 UNK         0.0824 
      6 C6         29.6103   23.3266    3.7817 C.3       12 UNK        -0.0944 
      7 S7         29.0225   22.7374    2.1497 S.3       12 UNK        -0.2672 
      8 C8         30.4220   21.7278    1.5713 C.3       12 UNK         0.0333 
      9 C9         31.6037   22.5993    1.1822 C.ar      12 UNK        -0.0807 
     10 C10        32.6601   22.7925    2.0754 C.ar      12 UNK        -0.0894 
     11 C11        33.7197   23.6428    1.7496 C.ar      12 UNK        -0.0804 
     12 C12        33.7419   24.2601    0.4941 C.ar      12 UNK        -0.0824 
     13 C13        32.6967   24.0612   -0.4151 C.ar      12 UNK        -0.0762 
     14 C14        31.6296   23.2294   -0.0647 C.ar      12 UNK        -0.0782 
     15 C15        32.7199   24.7490   -1.7729 C.3       12 UNK         0.0230 
     16 S16        32.3196   26.5204   -1.6415 S.3       12 UNK        -0.2608 
     17 C17        30.5289   26.5043   -1.2722 C.3       12 UNK        -0.0989 
     18 CA         29.7124   27.3123   -2.3112 C.3       5 UNK         0.0716 
     19 N          28.2800   27.0419   -2.2119 N.am      5 UNK        -0.4135 
     20 C          27.4483   26.9338   -3.2582 C.2       4 UNK         0.5031 
     21 O          27.8158   26.9318   -4.4338 O.2       4 UNK        -0.5229 
     22 CA         25.9425   26.8170   -2.9500 C.3       4 UNK         0.0329 
     23 CB         25.5221   25.3401   -2.8764 C.3       4 UNK        -0.2001 
     24 N          25.5515   27.4914   -1.7100 N.am      4 UNK        -0.4303 
     25 C          25.6345   28.8126   -1.4948 C.2       3 UNK         0.5044 
     26 O          25.9370   29.6293   -2.3643 O.2       3 UNK        -0.5152 
     27 CA         25.3718   29.3068   -0.0601 C.3       3 UNK         0.0319 
     28 CB         23.9454   29.8649    0.0633 C.3       3 UNK        -0.2001 
     29 N          25.5868   28.3049    0.9920 N.am      3 UNK        -0.4354 
     30 C          26.7184   27.6259    1.2312 C.2       2 UNK         0.4964 
     31 O          27.7533   27.7389    0.5643 O.2       2 UNK        -0.5047 
     32 CA         26.6462   26.6200    2.3833 C.3       2 UNK         0.0288 
     33 CB         25.7142   25.4436    2.0265 C.3       2 UNK        -0.2113 
     34 N          27.9775   26.1113    2.6920 N.am      2 UNK        -0.4145 
     35 C          28.3288   25.5308    3.8470 C.2       1 UNK         0.5006 
     36 O          27.5866   25.4661    4.8290 O.2       1 UNK        -0.5103 
     37 C          29.9524   28.8298   -2.1936 C.2       5 UNK         0.5055 
     38 O          30.5508   29.4143   -3.0990 O.2       5 UNK        -0.5220 
     39 N          29.4785   29.4445   -1.0989 N.am      6 UNK        -0.4450 
     40 CA         29.6641   30.8700   -0.8217 C.3       6 UNK         0.0367 
     41 CB         31.1003   31.1533   -0.3335 C.3       6 UNK        -0.1929 
     42 C          28.6235   31.3742    0.1817 C.2       6 UNK         0.5070 
     43 O          27.8187   32.2405   -0.1595 O.2       6 UNK        -0.5237 
     44 N          28.6525   30.8212    1.3978 N.am      7 UNK        -0.4739 
     45 CA         27.7843   31.1566    2.5246 C.3       7 UNK         0.0276 
     46 CB         28.1842   32.5205    3.1215 C.3       7 UNK        -0.1927 
     47 C          27.9243   30.0472    3.5721 C.2       7 UNK         0.5013 
     48 O          28.8981   29.2942    3.5192 O.2       7 UNK        -0.5193 
     49 N          26.9608   29.9665    4.4967 N.am      8 UNK        -0.4253 
     50 CA         26.9836   29.0505    5.6371 C.3       8 UNK         0.0242 
     51 CB         25.5475   28.5776    5.9314 C.3       8 UNK        -0.2000 
     52 C          27.5708   29.7945    6.8531 C.2       8 UNK         0.4948 
     53 O          26.9158   30.7172    7.3386 O.2       8 UNK        -0.5275 
     54 N          28.7607   29.4516    7.3609 N.am      9 UNK        -0.4246 
     55 CA         29.7533   28.5231    6.8279 C.3       9 UNK         0.0261 
     56 CB         29.5558   27.1243    7.4358 C.3       9 UNK        -0.1959 
     57 C          31.1367   29.0920    7.1605 C.2       9 UNK         0.5033 
     58 O          31.2968   29.6965    8.2253 O.2       9 UNK        -0.5390 
     59 N          32.0984   28.9018    6.2523 N.am      10 UNK        -0.4215 
     60 CA         33.4510   29.4497    6.3282 C.3       10 UNK         0.0240 
     61 CB         33.4277   30.9821    6.1258 C.3       10 UNK        -0.1982 
     62 C          34.3571   28.7474    5.3064 C.2       10 UNK         0.4970 
     63 O          34.6650   29.3243    4.2616 O.2       10 UNK        -0.4916 
     64 N          34.7789   27.5178    5.6263 N.am      11 UNK        -0.4279 
     65 CA         35.8127   26.7826    4.8713 C.3       11 UNK         0.1003 
     66 C          37.2670   27.2706    5.1432 C.2       11 UNK         0.5709 
     67 N          37.5192   28.1057    6.1450 N.am      11 UNK        -0.7358 
     68 O          38.1855   26.8910    4.4206 O.2       11 UNK        -0.4999 
     69 C69        35.6967   25.2483    5.0690 C.3       12 UNK        -0.0954 
     70 S70        34.1760   24.5889    4.3186 S.3       12 UNK        -0.2268 
     71 C71        34.8292   23.9033    2.7597 C.3       12 UNK         0.0203 
     72 H72        32.2659   26.4327    1.2309 H         1 UNK         0.0888 
     73 H73        33.2980   27.1622    2.4578 H         1 UNK         0.0888 
     74 H74        31.9537   28.0824    1.7716 H         1 UNK         0.0888 
     75 H75        30.8093   24.9304    2.1084 H         1 UNK         0.3017 
     76 H76        30.0944   25.0630    4.9255 H         1 UNK         0.0873 
     77 H77        28.9314   22.9327    4.5406 H         1 UNK         0.0745 
     78 H78        30.5752   22.8753    4.0109 H         1 UNK         0.0745 
     79 H79        30.7024   21.0093    2.3432 H         1 UNK         0.0705 
     80 H80        30.1014   21.1400    0.7098 H         1 UNK         0.0705 
     81 H81        32.6454   22.3086    3.0423 H         1 UNK         0.1334 
     82 H82        34.5599   24.9160    0.2283 H         1 UNK         0.1417 
     83 H83        30.8123   23.0770   -0.7568 H         1 UNK         0.1562 
     84 H84        32.0314   24.2689   -2.4703 H         1 UNK         0.0748 
     85 H85        33.7143   24.6461   -2.2096 H         1 UNK         0.0748 
     86 H86        30.3657   26.8775   -0.2601 H         1 UNK         0.0940 
     87 H87        30.1797   25.4714   -1.2655 H         1 UNK         0.0940 
     88 H88        30.0578   27.0040   -3.3009 H         1 UNK         0.0703 
     89 H89        27.8861   27.0817   -1.2782 H         1 UNK         0.3081 
     90 H90        25.4005   27.2887   -3.7725 H         1 UNK         0.0719 
     91 H91        26.0169   24.8181   -2.0563 H         1 UNK         0.0809 
     92 H92        24.4453   25.2397   -2.7390 H         1 UNK         0.0809 
     93 H93        25.7789   24.8158   -3.7981 H         1 UNK         0.0809 
     94 H94        25.2651   26.9026   -0.9421 H         1 UNK         0.2990 
     95 H95        26.0664   30.1247    0.1228 H         1 UNK         0.0690 
     96 H96        23.7799   30.3218    1.0392 H         1 UNK         0.0788 
     97 H97        23.1935   29.0874   -0.0777 H         1 UNK         0.0788 
     98 H98        23.7615   30.6359   -0.6865 H         1 UNK         0.0788 
     99 H99        24.7898   28.1208    1.5850 H         1 UNK         0.2993 
    100 H100       26.2606   27.1451    3.2579 H         1 UNK         0.0949 
    101 H101       24.7027   25.7829    1.8011 H         1 UNK         0.0767 
    102 H102       26.0786   24.8932    1.1579 H         1 UNK         0.0767 
    103 H103       25.6323   24.7371    2.8529 H         1 UNK         0.0767 
    104 H104       28.6560   26.2062    1.9492 H         1 UNK         0.3013 
    105 H105       28.9311   28.9165   -0.4232 H         1 UNK         0.3121 
    106 H106       29.5024   31.4266   -1.7478 H         1 UNK         0.0774 
    107 H107       31.2186   32.2010   -0.0538 H         1 UNK         0.0815 
    108 H108       31.8334   30.9454   -1.1128 H         1 UNK         0.0815 
    109 H109       31.3619   30.5499    0.5363 H         1 UNK         0.0815 
    110 H110       29.3149   30.0843    1.6126 H         1 UNK         0.2987 
    111 H111       26.7478   31.1889    2.1834 H         1 UNK         0.0949 
    112 H112       29.2227   32.5223    3.4551 H         1 UNK         0.0806 
    113 H113       28.0654   33.3259    2.3968 H         1 UNK         0.0806 
    114 H114       27.5643   32.7727    3.9827 H         1 UNK         0.0806 
    115 H115       26.2258   30.6599    4.5022 H         1 UNK         0.3010 
    116 H116       27.5633   28.1601    5.3971 H         1 UNK         0.0829 
    117 H117       25.1152   28.0512    5.0816 H         1 UNK         0.0813 
    118 H118       25.5354   27.8876    6.7762 H         1 UNK         0.0813 
    119 H119       24.8838   29.4071    6.1787 H         1 UNK         0.0813 
    120 H120       29.1205   29.9872    8.1414 H         1 UNK         0.3038 
    121 H121       29.6754   28.4677    5.7452 H         1 UNK         0.0769 
    122 H122       28.5765   26.7148    7.1885 H         1 UNK         0.0811 
    123 H123       30.3037   26.4281    7.0543 H         1 UNK         0.0811 
    124 H124       29.6476   27.1413    8.5224 H         1 UNK         0.0811 
    125 H125       31.8804   28.3343    5.4266 H         1 UNK         0.3204 
    126 H126       33.8560   29.2433    7.3213 H         1 UNK         0.0748 
    127 H127       32.8923   31.4874    6.9295 H         1 UNK         0.0771 
    128 H128       34.4390   31.3907    6.1118 H         1 UNK         0.0771 
    129 H129       32.9503   31.2555    5.1839 H         1 UNK         0.0771 
    130 H130       34.4635   27.0911    6.4849 H         1 UNK         0.2980 
    131 H131       35.6477   26.9788    3.8098 H         1 UNK         0.0545 
    132 H132       38.4663   28.4137    6.3007 H         1 UNK         0.3459 
    133 H133       36.7806   28.4233    6.7506 H         1 UNK         0.3459 
    134 H134       36.5499   24.7240    4.6341 H         1 UNK         0.0616 
    135 H135       35.6999   24.9975    6.1309 H         1 UNK         0.0616 
    136 H136       35.5622   24.5977    2.3459 H         1 UNK         0.0634 
    137 H137       35.3588   22.9728    2.9678 H         1 UNK         0.0634 
@<TRIPOS>BOND
     1    1    2 1    
     2    1   72 1    
     3    1   73 1    
     4    1   74 1    
     5    2    3 2    
     6    2    4 am   BACKBONE|DICT|INTERRES
     7    4    5 1    
     8    4   75 1    
     9    5    6 1    
    10    5   35 1    
    11    5   76 1    
    12    6    7 1    
    13    6   77 1    
    14    6   78 1    
    15    7    8 1    
    16    8    9 1    
    17    8   79 1    
    18    8   80 1    
    19    9   10 ar   
    20    9   14 ar   
    21   10   11 ar   
    22   10   81 1    
    23   11   12 ar   
    24   11   71 1    
    25   12   13 ar   
    26   12   82 1    
    27   13   14 ar   
    28   13   15 1    
    29   14   83 1    
    30   15   16 1    
    31   15   84 1    
    32   15   85 1    
    33   16   17 1    
    34   17   18 1    
    35   17   86 1    
    36   17   87 1    
    37   18   19 1    
    38   18   37 1    
    39   18   88 1    
    40   19   20 am   BACKBONE|DICT|INTERRES
    41   19   89 1    
    42   20   21 2    
    43   20   22 1    
    44   22   23 1    
    45   22   24 1    
    46   22   90 1    
    47   23   91 1    
    48   23   92 1    
    49   23   93 1    
    50   24   25 am   BACKBONE|DICT|INTERRES
    51   24   94 1    
    52   25   26 2    
    53   25   27 1    
    54   27   28 1    
    55   27   29 1    
    56   27   95 1    
    57   28   96 1    
    58   28   97 1    
    59   28   98 1    
    60   29   30 am   BACKBONE|DICT|INTERRES
    61   29   99 1    
    62   30   31 2    
    63   30   32 1    
    64   32   33 1    
    65   32   34 1    
    66   32  100 1    
    67   33  101 1    
    68   33  102 1    
    69   33  103 1    
    70   34   35 am   BACKBONE|DICT|INTERRES
    71   34  104 1    
    72   35   36 2    
    73   37   38 2    
    74   37   39 am   BACKBONE|DICT|INTERRES
    75   39   40 1    
    76   39  105 1    
    77   40   41 1    
    78   40   42 1    
    79   40  106 1    
    80   41  107 1    
    81   41  108 1    
    82   41  109 1    
    83   42   43 2    
    84   42   44 am   BACKBONE|DICT|INTERRES
    85   44   45 1    
    86   44  110 1    
    87   45   46 1    
    88   45   47 1    
    89   45  111 1    
    90   46  112 1    
    91   46  113 1    
    92   46  114 1    
    93   47   48 2    
    94   47   49 am   BACKBONE|DICT|INTERRES
    95   49   50 1    
    96   49  115 1    
    97   50   51 1    
    98   50   52 1    
    99   50  116 1    
   100   51  117 1    
   101   51  118 1    
   102   51  119 1    
   103   52   53 2    
   104   52   54 am   BACKBONE|DICT|INTERRES
   105   54   55 1    
   106   54  120 1    
   107   55   56 1    
   108   55   57 1    
   109   55  121 1    
   110   56  122 1    
   111   56  123 1    
   112   56  124 1    
   113   57   58 2    
   114   57   59 am   BACKBONE|DICT|INTERRES
   115   59   60 1    
   116   59  125 1    
   117   60   61 1    
   118   60   62 1    
   119   60  126 1    
   120   61  127 1    
   121   61  128 1    
   122   61  129 1    
   123   62   63 2    
   124   62   64 am   BACKBONE|DICT|INTERRES
   125   64   65 1    
   126   64  130 1    
   127   65   66 1    
   128   65   69 1    
   129   65  131 1    
   130   66   67 am   BACKBONE|DICT|INTERRES
   131   66   68 2    
   132   67  132 1    
   133   67  133 1    
   134   69   70 1    
   135   69  134 1    
   136   69  135 1    
   137   70   71 1    
   138   71  136 1    
   139   71  137 1    
@<TRIPOS>SUBSTRUCTURE
     1 UNK         1 GROUP             0       ****    0 ROOT    
