@<TRIPOS>MOLECULE
3R136
137   139    1
SMALL
USER_CHARGES


@<TRIPOS>ATOM
      1 CA         30.8455   18.8005   -1.8008 C.3       0 UNK        -0.1979 
      2 C          30.9422   20.2671   -1.4070 C.2       0 UNK         0.4864 
      3 O          31.9217   20.9283   -1.7539 O.2       0 UNK        -0.5359 
      4 N          29.9358   20.7762   -0.6819 N.am      1 UNK        -0.4318 
      5 CA         29.8422   22.1713   -0.2325 C.3       1 UNK         0.0824 
      6 C6         28.7301   22.3382    0.8356 C.3       12 UNK        -0.0944 
      7 S7         28.9625   23.8094    1.8891 S.3       12 UNK        -0.2672 
      8 C8         28.9868   23.0575    3.5437 C.3       12 UNK         0.0333 
      9 C9         28.9474   24.1247    4.6248 C.ar      12 UNK        -0.0807 
     10 C10        30.1280   24.7430    5.0439 C.ar      12 UNK        -0.0894 
     11 C11        30.0986   25.7196    6.0425 C.ar      12 UNK        -0.0804 
     12 C12        28.8755   26.0899    6.6114 C.ar      12 UNK        -0.0824 
     13 C13        27.6854   25.4795    6.2009 C.ar      12 UNK        -0.0762 
     14 C14        27.7323   24.4876    5.2138 C.ar      12 UNK        -0.0782 
     15 C15        26.3609   25.8786    6.8472 C.3       12 UNK         0.0230 
     16 S16        25.0255   26.1787    5.6394 S.3       12 UNK        -0.2608 
     17 C17        25.4792   27.8014    4.9311 C.3       12 UNK        -0.0989 
     18 CA         26.6049   27.7370    3.8644 C.3       5 UNK         0.0716 
     19 N          26.4281   26.6894    2.8452 N.am      5 UNK        -0.4135 
     20 C          25.4328   26.5413    1.9619 C.2       4 UNK         0.5031 
     21 O          24.4622   27.2961    1.8787 O.2       4 UNK        -0.5229 
     22 CA         25.6126   25.4178    0.9271 C.3       4 UNK         0.0329 
     23 CB         24.2931   24.6674    0.6794 C.3       4 UNK        -0.2001 
     24 N          26.1339   25.9053   -0.3561 N.am      4 UNK        -0.4303 
     25 C          27.2196   26.6699   -0.5524 C.2       3 UNK         0.5044 
     26 O          27.9423   27.0981    0.3479 O.2       3 UNK        -0.5152 
     27 CA         27.5807   26.9598   -2.0177 C.3       3 UNK         0.0319 
     28 CB         28.5763   28.1260   -2.1649 C.3       3 UNK        -0.2001 
     29 N          28.1754   25.7594   -2.5969 N.am      3 UNK        -0.4354 
     30 C          27.5003   24.7537   -3.1629 C.2       2 UNK         0.4964 
     31 O          26.2831   24.7670   -3.3494 O.2       2 UNK        -0.5047 
     32 CA         28.3130   23.5039   -3.5428 C.3       2 UNK         0.0288 
     33 CB         29.4671   23.8251   -4.5157 C.3       2 UNK        -0.2113 
     34 N          28.7783   22.7568   -2.3658 N.am      2 UNK        -0.4145 
     35 C          29.6407   23.1486   -1.4117 C.2       1 UNK         0.5006 
     36 O          30.2623   24.2129   -1.4344 O.2       1 UNK        -0.5103 
     37 C          26.9071   29.1356    3.2766 C.2       5 UNK         0.5055 
     38 O          27.6408   29.9032    3.9025 O.2       5 UNK        -0.5220 
     39 N          26.3978   29.4258    2.0702 N.am      6 UNK        -0.4450 
     40 CA         26.6594   30.6138    1.2500 C.3       6 UNK         0.0367 
     41 CB         25.8079   30.5316   -0.0274 C.3       6 UNK        -0.1929 
     42 C          28.1443   30.8370    0.8993 C.2       6 UNK         0.5070 
     43 O          28.5095   31.9561    0.5394 O.2       6 UNK        -0.5237 
     44 N          28.9731   29.7917    1.0467 N.am      7 UNK        -0.4739 
     45 CA         30.4385   29.8237    1.0411 C.3       7 UNK         0.0276 
     46 CB         30.9551   28.4137    1.3764 C.3       7 UNK        -0.1927 
     47 C          31.0424   30.8606    2.0106 C.2       7 UNK         0.5013 
     48 O          32.0692   31.4565    1.6792 O.2       7 UNK        -0.5193 
     49 N          30.3740   31.0817    3.1566 N.am      8 UNK        -0.4253 
     50 CA         30.6167   32.1363    4.1475 C.3       8 UNK         0.0242 
     51 CB         30.0492   33.4754    3.6264 C.3       8 UNK        -0.2000 
     52 C          32.0892   32.2181    4.5906 C.2       8 UNK         0.4948 
     53 O          32.5419   31.3484    5.3329 O.2       8 UNK        -0.5275 
     54 N          32.8211   33.2331    4.1089 N.am      9 UNK        -0.4246 
     55 CA         34.2452   33.4566    4.3751 C.3       9 UNK         0.0261 
     56 CB         34.6859   34.7689    3.7073 C.3       9 UNK        -0.1959 
     57 C          35.1630   32.2983    3.9406 C.2       9 UNK         0.5033 
     58 O          36.2150   32.1110    4.5546 O.2       9 UNK        -0.5390 
     59 N          34.7488   31.5149    2.9319 N.am      10 UNK        -0.4215 
     60 CA         35.4701   30.3245    2.4702 C.3       10 UNK         0.0240 
     61 CB         34.9446   29.8959    1.0915 C.3       10 UNK        -0.1982 
     62 C          35.4485   29.1521    3.4720 C.2       10 UNK         0.4970 
     63 O          36.2486   28.2294    3.3115 O.2       10 UNK        -0.4916 
     64 N          34.5850   29.2099    4.4981 N.am      11 UNK        -0.4279 
     65 CA         34.6421   28.3199    5.6689 C.3       11 UNK         0.1003 
     66 C          35.8674   28.5806    6.5977 C.2       11 UNK         0.5709 
     67 N          36.5841   29.6941    6.4768 N.am      11 UNK        -0.7358 
     68 O          36.1793   27.7459    7.4439 O.2       11 UNK        -0.4999 
     69 C69        33.3273   28.3529    6.4913 C.3       12 UNK        -0.0954 
     70 S70        31.8645   27.7990    5.5492 S.3       12 UNK        -0.2268 
     71 C71        31.3932   26.3456    6.5339 C.3       12 UNK         0.0203 
     72 H72        29.9348   18.3352   -1.4242 H         1 UNK         0.0888 
     73 H73        30.8522   18.7026   -2.8861 H         1 UNK         0.0888 
     74 H74        31.6969   18.2487   -1.4035 H         1 UNK         0.0888 
     75 H75        29.1691   20.1738   -0.4171 H         1 UNK         0.3017 
     76 H76        30.8008   22.4164    0.2309 H         1 UNK         0.0873 
     77 H77        28.7113   21.4592    1.4819 H         1 UNK         0.0745 
     78 H78        27.7388   22.3847    0.3800 H         1 UNK         0.0745 
     79 H79        28.1342   22.3850    3.6521 H         1 UNK         0.0705 
     80 H80        29.8828   22.4442    3.6514 H         1 UNK         0.0705 
     81 H81        31.0710   24.4597    4.5963 H         1 UNK         0.1334 
     82 H82        28.8545   26.8473    7.3833 H         1 UNK         0.1417 
     83 H83        26.8178   24.0044    4.8971 H         1 UNK         0.1562 
     84 H84        26.4798   26.7649    7.4723 H         1 UNK         0.0748 
     85 H85        26.0495   25.0733    7.5137 H         1 UNK         0.0748 
     86 H86        25.7653   28.4705    5.7451 H         1 UNK         0.0940 
     87 H87        24.5745   28.2303    4.4960 H         1 UNK         0.0940 
     88 H88        27.5237   27.4576    4.3790 H         1 UNK         0.0703 
     89 H89        27.2184   26.0655    2.7518 H         1 UNK         0.3081 
     90 H90        26.3270   24.6969    1.3229 H         1 UNK         0.0719 
     91 H91        24.4420   23.8059    0.0281 H         1 UNK         0.0809 
     92 H92        23.5417   25.3107    0.2195 H         1 UNK         0.0809 
     93 H93        23.8746   24.2959    1.6159 H         1 UNK         0.0809 
     94 H94        25.6360   25.5959   -1.1802 H         1 UNK         0.2990 
     95 H95        26.6668   27.2250   -2.5535 H         1 UNK         0.0690 
     96 H96        28.7970   28.3264   -3.2133 H         1 UNK         0.0788 
     97 H97        29.5208   27.9210   -1.6591 H         1 UNK         0.0788 
     98 H98        28.1712   29.0439   -1.7389 H         1 UNK         0.0788 
     99 H99        29.1474   25.5798   -2.3627 H         1 UNK         0.2993 
    100 H100       27.6269   22.8376   -4.0687 H         1 UNK         0.0949 
    101 H101       29.0925   24.3268   -5.4089 H         1 UNK         0.0767 
    102 H102       30.2209   24.4758   -4.0722 H         1 UNK         0.0767 
    103 H103       29.9685   22.9141   -4.8429 H         1 UNK         0.0767 
    104 H104       28.3328   21.8596   -2.2335 H         1 UNK         0.3013 
    105 H105       25.7623   28.7382    1.6783 H         1 UNK         0.3121 
    106 H106       26.3353   31.4827    1.8261 H         1 UNK         0.0774 
    107 H107       25.9676   31.4042   -0.6625 H         1 UNK         0.0815 
    108 H108       26.0509   29.6483   -0.6181 H         1 UNK         0.0815 
    109 H109       24.7439   30.4946    0.2073 H         1 UNK         0.0815 
    110 H110       28.5525   28.8845    1.2191 H         1 UNK         0.2987 
    111 H111       30.7596   30.0877    0.0317 H         1 UNK         0.0949 
    112 H112       30.6110   28.0817    2.3572 H         1 UNK         0.0806 
    113 H113       30.6184   27.6816    0.6421 H         1 UNK         0.0806 
    114 H114       32.0430   28.3762    1.3881 H         1 UNK         0.0806 
    115 H115       29.5455   30.5204    3.3285 H         1 UNK         0.3010 
    116 H116       30.0474   31.8596    5.0363 H         1 UNK         0.0829 
    117 H117       28.9738   33.4004    3.4630 H         1 UNK         0.0813 
    118 H118       30.2063   34.2812    4.3449 H         1 UNK         0.0813 
    119 H119       30.4984   33.7749    2.6787 H         1 UNK         0.0813 
    120 H120       32.3715   33.8793    3.4766 H         1 UNK         0.3038 
    121 H121       34.3587   33.5675    5.4555 H         1 UNK         0.0769 
    122 H122       35.7376   34.9761    3.9107 H         1 UNK         0.0811 
    123 H123       34.1132   35.6179    4.0811 H         1 UNK         0.0811 
    124 H124       34.5650   34.7308    2.6239 H         1 UNK         0.0811 
    125 H125       33.8452   31.6973    2.5002 H         1 UNK         0.3204 
    126 H126       36.5182   30.6054    2.3458 H         1 UNK         0.0748 
    127 H127       35.5081   29.0461    0.7038 H         1 UNK         0.0771 
    128 H128       33.8991   29.6005    1.1334 H         1 UNK         0.0771 
    129 H129       35.0346   30.7031    0.3643 H         1 UNK         0.0771 
    130 H130       33.9447   29.9922    4.5773 H         1 UNK         0.2980 
    131 H131       34.7639   27.3011    5.2963 H         1 UNK         0.0545 
    132 H132       36.3508   30.3998    5.7887 H         1 UNK         0.3459 
    133 H133       37.3732   29.8352    7.0870 H         1 UNK         0.3459 
    134 H134       33.1354   29.3590    6.8653 H         1 UNK         0.0616 
    135 H135       33.4264   27.7282    7.3809 H         1 UNK         0.0616 
    136 H136       32.2002   25.6118    6.4992 H         1 UNK         0.0634 
    137 H137       31.2867   26.6376    7.5800 H         1 UNK         0.0634 
@<TRIPOS>BOND
     1    1    2 1    
     2    1   72 1    
     3    1   73 1    
     4    1   74 1    
     5    2    3 2    
     6    2    4 am   BACKBONE|DICT|INTERRES
     7    4    5 1    
     8    4   75 1    
     9    5    6 1    
    10    5   35 1    
    11    5   76 1    
    12    6    7 1    
    13    6   77 1    
    14    6   78 1    
    15    7    8 1    
    16    8    9 1    
    17    8   79 1    
    18    8   80 1    
    19    9   10 ar   
    20    9   14 ar   
    21   10   11 ar   
    22   10   81 1    
    23   11   12 ar   
    24   11   71 1    
    25   12   13 ar   
    26   12   82 1    
    27   13   14 ar   
    28   13   15 1    
    29   14   83 1    
    30   15   16 1    
    31   15   84 1    
    32   15   85 1    
    33   16   17 1    
    34   17   18 1    
    35   17   86 1    
    36   17   87 1    
    37   18   19 1    
    38   18   37 1    
    39   18   88 1    
    40   19   20 am   BACKBONE|DICT|INTERRES
    41   19   89 1    
    42   20   21 2    
    43   20   22 1    
    44   22   23 1    
    45   22   24 1    
    46   22   90 1    
    47   23   91 1    
    48   23   92 1    
    49   23   93 1    
    50   24   25 am   BACKBONE|DICT|INTERRES
    51   24   94 1    
    52   25   26 2    
    53   25   27 1    
    54   27   28 1    
    55   27   29 1    
    56   27   95 1    
    57   28   96 1    
    58   28   97 1    
    59   28   98 1    
    60   29   30 am   BACKBONE|DICT|INTERRES
    61   29   99 1    
    62   30   31 2    
    63   30   32 1    
    64   32   33 1    
    65   32   34 1    
    66   32  100 1    
    67   33  101 1    
    68   33  102 1    
    69   33  103 1    
    70   34   35 am   BACKBONE|DICT|INTERRES
    71   34  104 1    
    72   35   36 2    
    73   37   38 2    
    74   37   39 am   BACKBONE|DICT|INTERRES
    75   39   40 1    
    76   39  105 1    
    77   40   41 1    
    78   40   42 1    
    79   40  106 1    
    80   41  107 1    
    81   41  108 1    
    82   41  109 1    
    83   42   43 2    
    84   42   44 am   BACKBONE|DICT|INTERRES
    85   44   45 1    
    86   44  110 1    
    87   45   46 1    
    88   45   47 1    
    89   45  111 1    
    90   46  112 1    
    91   46  113 1    
    92   46  114 1    
    93   47   48 2    
    94   47   49 am   BACKBONE|DICT|INTERRES
    95   49   50 1    
    96   49  115 1    
    97   50   51 1    
    98   50   52 1    
    99   50  116 1    
   100   51  117 1    
   101   51  118 1    
   102   51  119 1    
   103   52   53 2    
   104   52   54 am   BACKBONE|DICT|INTERRES
   105   54   55 1    
   106   54  120 1    
   107   55   56 1    
   108   55   57 1    
   109   55  121 1    
   110   56  122 1    
   111   56  123 1    
   112   56  124 1    
   113   57   58 2    
   114   57   59 am   BACKBONE|DICT|INTERRES
   115   59   60 1    
   116   59  125 1    
   117   60   61 1    
   118   60   62 1    
   119   60  126 1    
   120   61  127 1    
   121   61  128 1    
   122   61  129 1    
   123   62   63 2    
   124   62   64 am   BACKBONE|DICT|INTERRES
   125   64   65 1    
   126   64  130 1    
   127   65   66 1    
   128   65   69 1    
   129   65  131 1    
   130   66   67 am   BACKBONE|DICT|INTERRES
   131   66   68 2    
   132   67  132 1    
   133   67  133 1    
   134   69   70 1    
   135   69  134 1    
   136   69  135 1    
   137   70   71 1    
   138   71  136 1    
   139   71  137 1    
@<TRIPOS>SUBSTRUCTURE
     1 UNK         1 GROUP             0       ****    0 ROOT    
