@<TRIPOS>MOLECULE
3R136
137   139    1
SMALL
USER_CHARGES


@<TRIPOS>ATOM
      1 CA         27.3717   20.0636    3.5906 C.3       0 UNK        -0.1979 
      2 C          27.4056   21.2220    2.6059 C.2       0 UNK         0.4864 
      3 O          26.5210   22.0795    2.6396 O.2       0 UNK        -0.5359 
      4 N          28.4300   21.2676    1.7402 N.am      1 UNK        -0.4318 
      5 CA         28.6223   22.2914    0.7021 C.3       1 UNK         0.0824 
      6 C6         29.8012   21.9701   -0.2500 C.3       12 UNK        -0.0944 
      7 S7         31.3888   21.6501    0.5962 S.3       12 UNK        -0.2672 
      8 C8         32.5082   22.8613   -0.1860 C.3       12 UNK         0.0333 
      9 C9         32.5164   24.2149    0.5161 C.ar      12 UNK        -0.0807 
     10 C10        32.8577   24.2957    1.8702 C.ar      12 UNK        -0.0894 
     11 C11        32.9425   25.5334    2.5124 C.ar      12 UNK        -0.0804 
     12 C12        32.6825   26.6983    1.7860 C.ar      12 UNK        -0.0824 
     13 C13        32.3495   26.6415    0.4295 C.ar      12 UNK        -0.0762 
     14 C14        32.2631   25.3920   -0.1992 C.ar      12 UNK        -0.0782 
     15 C15        32.1675   27.9462   -0.3461 C.3       12 UNK         0.0230 
     16 S16        30.7541   27.9571   -1.4975 S.3       12 UNK        -0.2608 
     17 C17        29.3609   27.7716   -0.3436 C.3       12 UNK        -0.0989 
     18 CA         27.9916   27.9013   -1.0641 C.3       5 UNK         0.0716 
     19 N          27.0125   26.9549   -0.5262 N.am      5 UNK        -0.4135 
     20 C          25.7648   26.7603   -0.9755 C.2       4 UNK         0.5031 
     21 O          25.2534   27.4006   -1.8954 O.2       4 UNK        -0.5229 
     22 CA         24.9556   25.6278   -0.3201 C.3       4 UNK         0.0329 
     23 CB         25.1094   24.3278   -1.1269 C.3       4 UNK        -0.2001 
     24 N          25.3492   25.3759    1.0674 N.am      4 UNK        -0.4303 
     25 C          24.8772   26.0464    2.1270 C.2       3 UNK         0.5044 
     26 O          24.0401   26.9465    2.0512 O.2       3 UNK        -0.5152 
     27 CA         25.4145   25.6363    3.5096 C.3       3 UNK         0.0319 
     28 CB         24.4950   24.5864    4.1537 C.3       3 UNK        -0.2001 
     29 N          26.7811   25.1121    3.4530 N.am      3 UNK        -0.4354 
     30 C          27.8739   25.8833    3.3426 C.2       2 UNK         0.4964 
     31 O          27.8417   27.1125    3.3189 O.2       2 UNK        -0.5047 
     32 CA         29.2328   25.1680    3.2181 C.3       2 UNK         0.0288 
     33 CB         29.8212   24.9151    4.6156 C.3       2 UNK        -0.2113 
     34 N          29.1763   23.8973    2.4908 N.am      2 UNK        -0.4145 
     35 C          28.7056   23.7304    1.2459 C.2       1 UNK         0.5006 
     36 O          28.2762   24.6490    0.5507 O.2       1 UNK        -0.5103 
     37 C          27.4886   29.3592   -1.0373 C.2       5 UNK         0.5055 
     38 O          27.0143   29.8248    0.0015 O.2       5 UNK        -0.5220 
     39 N          27.6453   30.0631   -2.1647 N.am      6 UNK        -0.4450 
     40 CA         27.3337   31.4849   -2.3197 C.3       6 UNK         0.0367 
     41 CB         26.7336   31.7163   -3.7195 C.3       6 UNK        -0.1929 
     42 C          28.6025   32.3182   -2.0701 C.2       6 UNK         0.5070 
     43 O          29.0707   33.0240   -2.9653 O.2       6 UNK        -0.5237 
     44 N          29.1623   32.1868   -0.8646 N.am      7 UNK        -0.4739 
     45 CA         30.4030   32.8158   -0.4213 C.3       7 UNK         0.0276 
     46 CB         31.6076   32.0249   -0.9703 C.3       7 UNK        -0.1927 
     47 C          30.4196   32.8564    1.1117 C.2       7 UNK         0.5013 
     48 O          29.5565   32.2488    1.7532 O.2       7 UNK        -0.5193 
     49 N          31.4174   33.5477    1.6779 N.am      8 UNK        -0.4253 
     50 CA         31.6857   33.6211    3.1169 C.3       8 UNK         0.0242 
     51 CB         32.5999   34.8288    3.3961 C.3       8 UNK        -0.2000 
     52 C          32.2852   32.2999    3.6360 C.2       8 UNK         0.4948 
     53 O          33.4839   32.2258    3.9170 O.2       8 UNK        -0.5275 
     54 N          31.4414   31.2649    3.7164 N.am      9 UNK        -0.4246 
     55 CA         31.7753   29.8953    4.1074 C.3       9 UNK         0.0261 
     56 CB         30.6365   28.9644    3.6529 C.3       9 UNK        -0.1959 
     57 C          32.0846   29.7533    5.6097 C.2       9 UNK         0.5033 
     58 O          31.3708   29.0485    6.3256 O.2       9 UNK        -0.5390 
     59 N          33.1681   30.4003    6.0591 N.am      10 UNK        -0.4215 
     60 CA         33.6961   30.3452    7.4291 C.3       10 UNK         0.0240 
     61 CB         34.8940   31.3011    7.5468 C.3       10 UNK        -0.1982 
     62 C          34.0860   28.9276    7.8930 C.2       10 UNK         0.4970 
     63 O          34.0579   28.6550    9.0936 O.2       10 UNK        -0.4916 
     64 N          34.4104   28.0525    6.9337 N.am      11 UNK        -0.4279 
     65 CA         34.5763   26.6047    7.1103 C.3       11 UNK         0.1003 
     66 C          33.2702   25.8208    7.4434 C.2       11 UNK         0.5709 
     67 N          32.0813   26.4049    7.3433 N.am      11 UNK        -0.7358 
     68 O          33.3416   24.6516    7.8135 O.2       11 UNK        -0.4999 
     69 C69        35.3584   25.9679    5.9249 C.3       12 UNK        -0.0954 
     70 S70        34.8640   26.5280    4.2541 S.3       12 UNK        -0.2268 
     71 C71        33.3176   25.6087    3.9866 C.3       12 UNK         0.0203 
     72 H72        26.4558   19.4882    3.4592 H         1 UNK         0.0888 
     73 H73        27.3942   20.4400    4.6129 H         1 UNK         0.0888 
     74 H74        28.2181   19.3900    3.4575 H         1 UNK         0.0888 
     75 H75        29.1398   20.5486    1.7699 H         1 UNK         0.3017 
     76 H76        27.7150   22.2677    0.0945 H         1 UNK         0.0873 
     77 H77        29.5590   21.0771   -0.8282 H         1 UNK         0.0745 
     78 H78        29.9223   22.7650   -0.9888 H         1 UNK         0.0745 
     79 H79        33.5211   22.4578   -0.1532 H         1 UNK         0.0705 
     80 H80        32.2616   22.9634   -1.2438 H         1 UNK         0.0705 
     81 H81        33.0699   23.3888    2.4199 H         1 UNK         0.1334 
     82 H82        32.7753   27.6558    2.2758 H         1 UNK         0.1417 
     83 H83        32.0274   25.3405   -1.2534 H         1 UNK         0.1562 
     84 H84        33.0778   28.1368   -0.9157 H         1 UNK         0.0748 
     85 H85        32.0558   28.7865    0.3408 H         1 UNK         0.0748 
     86 H86        29.4601   28.4810    0.4805 H         1 UNK         0.0940 
     87 H87        29.4737   26.7890    0.1114 H         1 UNK         0.0940 
     88 H88        28.1137   27.6047   -2.1082 H         1 UNK         0.0703 
     89 H89        27.3655   26.3049    0.1682 H         1 UNK         0.3081 
     90 H90        23.9024   25.9165   -0.3440 H         1 UNK         0.0719 
     91 H91        26.1464   23.9914   -1.1599 H         1 UNK         0.0809 
     92 H92        24.5084   23.5233   -0.7026 H         1 UNK         0.0809 
     93 H93        24.7805   24.4682   -2.1575 H         1 UNK         0.0809 
     94 H94        26.0580   24.6715    1.2198 H         1 UNK         0.2990 
     95 H95        25.4072   26.5251    4.1445 H         1 UNK         0.0690 
     96 H96        24.8323   24.3255    5.1570 H         1 UNK         0.0788 
     97 H97        24.4534   23.6692    3.5647 H         1 UNK         0.0788 
     98 H98        23.4751   24.9633    4.2426 H         1 UNK         0.0788 
     99 H99        26.8814   24.1034    3.4275 H         1 UNK         0.2993 
    100 H100       29.9053   25.8273    2.6655 H         1 UNK         0.0949 
    101 H101       29.9792   25.8545    5.1475 H         1 UNK         0.0767 
    102 H102       29.1579   24.3020    5.2272 H         1 UNK         0.0767 
    103 H103       30.7821   24.4050    4.5596 H         1 UNK         0.0767 
    104 H104       29.5042   23.0781    2.9804 H         1 UNK         0.3013 
    105 H105       28.0939   29.6186   -2.9535 H         1 UNK         0.3121 
    106 H106       26.5879   31.7917   -1.5830 H         1 UNK         0.0774 
    107 H107       27.4315   31.4424   -4.5117 H         1 UNK         0.0815 
    108 H108       26.4720   32.7655   -3.8628 H         1 UNK         0.0815 
    109 H109       25.8224   31.1345   -3.8598 H         1 UNK         0.0815 
    110 H110       28.6967   31.6318   -0.1536 H         1 UNK         0.2987 
    111 H111       30.4359   33.8443   -0.7879 H         1 UNK         0.0949 
    112 H112       31.6015   30.9938   -0.6169 H         1 UNK         0.0806 
    113 H113       31.6060   32.0008   -2.0601 H         1 UNK         0.0806 
    114 H114       32.5543   32.4708   -0.6638 H         1 UNK         0.0806 
    115 H115       32.0944   33.9959    1.0771 H         1 UNK         0.3010 
    116 H116       30.7431   33.7880    3.6434 H         1 UNK         0.0829 
    117 H117       32.1299   35.7623    3.0860 H         1 UNK         0.0813 
    118 H118       32.8163   34.9151    4.4618 H         1 UNK         0.0813 
    119 H119       33.5550   34.7448    2.8760 H         1 UNK         0.0813 
    120 H120       30.4910   31.4231    3.3977 H         1 UNK         0.3038 
    121 H121       32.6797   29.6042    3.5700 H         1 UNK         0.0769 
    122 H122       29.6886   29.2242    4.1261 H         1 UNK         0.0811 
    123 H123       30.8488   27.9261    3.9084 H         1 UNK         0.0811 
    124 H124       30.4922   29.0090    2.5741 H         1 UNK         0.0811 
    125 H125       33.6432   31.0127    5.3992 H         1 UNK         0.3204 
    126 H126       32.9073   30.6975    8.0968 H         1 UNK         0.0748 
    127 H127       35.2919   31.3067    8.5627 H         1 UNK         0.0771 
    128 H128       35.7068   31.0132    6.8788 H         1 UNK         0.0771 
    129 H129       34.6091   32.3257    7.3063 H         1 UNK         0.0771 
    130 H130       34.4191   28.3705    5.9765 H         1 UNK         0.2980 
    131 H131       35.2012   26.4757    7.9960 H         1 UNK         0.0545 
    132 H132       31.2604   25.8733    7.5814 H         1 UNK         0.3459 
    133 H133       31.9802   27.3685    7.0387 H         1 UNK         0.3459 
    134 H134       36.4127   26.2270    6.0317 H         1 UNK         0.0616 
    135 H135       35.3326   24.8772    5.9630 H         1 UNK         0.0616 
    136 H136       33.4127   24.6077    4.4102 H         1 UNK         0.0634 
    137 H137       32.5168   26.1077    4.5314 H         1 UNK         0.0634 
@<TRIPOS>BOND
     1    1    2 1    
     2    1   72 1    
     3    1   73 1    
     4    1   74 1    
     5    2    3 2    
     6    2    4 am   BACKBONE|DICT|INTERRES
     7    4    5 1    
     8    4   75 1    
     9    5    6 1    
    10    5   35 1    
    11    5   76 1    
    12    6    7 1    
    13    6   77 1    
    14    6   78 1    
    15    7    8 1    
    16    8    9 1    
    17    8   79 1    
    18    8   80 1    
    19    9   10 ar   
    20    9   14 ar   
    21   10   11 ar   
    22   10   81 1    
    23   11   12 ar   
    24   11   71 1    
    25   12   13 ar   
    26   12   82 1    
    27   13   14 ar   
    28   13   15 1    
    29   14   83 1    
    30   15   16 1    
    31   15   84 1    
    32   15   85 1    
    33   16   17 1    
    34   17   18 1    
    35   17   86 1    
    36   17   87 1    
    37   18   19 1    
    38   18   37 1    
    39   18   88 1    
    40   19   20 am   BACKBONE|DICT|INTERRES
    41   19   89 1    
    42   20   21 2    
    43   20   22 1    
    44   22   23 1    
    45   22   24 1    
    46   22   90 1    
    47   23   91 1    
    48   23   92 1    
    49   23   93 1    
    50   24   25 am   BACKBONE|DICT|INTERRES
    51   24   94 1    
    52   25   26 2    
    53   25   27 1    
    54   27   28 1    
    55   27   29 1    
    56   27   95 1    
    57   28   96 1    
    58   28   97 1    
    59   28   98 1    
    60   29   30 am   BACKBONE|DICT|INTERRES
    61   29   99 1    
    62   30   31 2    
    63   30   32 1    
    64   32   33 1    
    65   32   34 1    
    66   32  100 1    
    67   33  101 1    
    68   33  102 1    
    69   33  103 1    
    70   34   35 am   BACKBONE|DICT|INTERRES
    71   34  104 1    
    72   35   36 2    
    73   37   38 2    
    74   37   39 am   BACKBONE|DICT|INTERRES
    75   39   40 1    
    76   39  105 1    
    77   40   41 1    
    78   40   42 1    
    79   40  106 1    
    80   41  107 1    
    81   41  108 1    
    82   41  109 1    
    83   42   43 2    
    84   42   44 am   BACKBONE|DICT|INTERRES
    85   44   45 1    
    86   44  110 1    
    87   45   46 1    
    88   45   47 1    
    89   45  111 1    
    90   46  112 1    
    91   46  113 1    
    92   46  114 1    
    93   47   48 2    
    94   47   49 am   BACKBONE|DICT|INTERRES
    95   49   50 1    
    96   49  115 1    
    97   50   51 1    
    98   50   52 1    
    99   50  116 1    
   100   51  117 1    
   101   51  118 1    
   102   51  119 1    
   103   52   53 2    
   104   52   54 am   BACKBONE|DICT|INTERRES
   105   54   55 1    
   106   54  120 1    
   107   55   56 1    
   108   55   57 1    
   109   55  121 1    
   110   56  122 1    
   111   56  123 1    
   112   56  124 1    
   113   57   58 2    
   114   57   59 am   BACKBONE|DICT|INTERRES
   115   59   60 1    
   116   59  125 1    
   117   60   61 1    
   118   60   62 1    
   119   60  126 1    
   120   61  127 1    
   121   61  128 1    
   122   61  129 1    
   123   62   63 2    
   124   62   64 am   BACKBONE|DICT|INTERRES
   125   64   65 1    
   126   64  130 1    
   127   65   66 1    
   128   65   69 1    
   129   65  131 1    
   130   66   67 am   BACKBONE|DICT|INTERRES
   131   66   68 2    
   132   67  132 1    
   133   67  133 1    
   134   69   70 1    
   135   69  134 1    
   136   69  135 1    
   137   70   71 1    
   138   71  136 1    
   139   71  137 1    
@<TRIPOS>SUBSTRUCTURE
     1 UNK         1 GROUP             0       ****    0 ROOT    
