@<TRIPOS>MOLECULE
3R136
137   139    1
SMALL
USER_CHARGES


@<TRIPOS>ATOM
      1 CA         30.2517   26.6551   -2.3475 C.3       0 UNK        -0.1979 
      2 C          29.7206   26.0734   -1.0468 C.2       0 UNK         0.4864 
      3 O          28.7704   26.6130   -0.4760 O.2       0 UNK        -0.5359 
      4 N          30.3309   24.9827   -0.5651 N.am      1 UNK        -0.4318 
      5 CA         29.8404   24.2131    0.5817 C.3       1 UNK         0.0824 
      6 C6         30.9492   23.3850    1.2750 C.3       12 UNK        -0.0944 
      7 S7         32.4244   24.3026    1.8571 S.3       12 UNK        -0.2672 
      8 C8         31.8613   25.9828    2.2994 C.3       12 UNK         0.0333 
      9 C9         31.0715   26.0301    3.5992 C.ar      12 UNK        -0.0807 
     10 C10        31.7143   25.8087    4.8205 C.ar      12 UNK        -0.0894 
     11 C11        31.0067   25.8983    6.0242 C.ar      12 UNK        -0.0804 
     12 C12        29.6375   26.1858    5.9963 C.ar      12 UNK        -0.0824 
     13 C13        28.9817   26.3973    4.7802 C.ar      12 UNK        -0.0762 
     14 C14        29.7096   26.3421    3.5896 C.ar      12 UNK        -0.0782 
     15 C15        27.4874   26.6768    4.7406 C.3       12 UNK         0.0230 
     16 S16        27.1668   28.4292    4.3860 S.3       12 UNK        -0.2608 
     17 C17        25.8431   28.3266    3.1365 C.3       12 UNK        -0.0989 
     18 CA         26.3796   28.0895    1.6955 C.3       5 UNK         0.0716 
     19 N          25.3803   27.4562    0.8272 N.am      5 UNK        -0.4135 
     20 C          24.2257   28.0021    0.4147 C.2       4 UNK         0.5031 
     21 O          23.8242   29.1062    0.7858 O.2       4 UNK        -0.5229 
     22 CA         23.3498   27.1805   -0.5555 C.3       4 UNK         0.0329 
     23 CB         22.7267   28.0656   -1.6565 C.3       4 UNK        -0.2001 
     24 N          24.0036   26.0041   -1.1476 N.am      4 UNK        -0.4303 
     25 C          25.0551   25.9714   -1.9781 C.2       3 UNK         0.5044 
     26 O          25.6996   26.9669   -2.3108 O.2       3 UNK        -0.5152 
     27 CA         25.4691   24.5743   -2.4793 C.3       3 UNK         0.0319 
     28 CB         26.4550   24.6461   -3.6599 C.3       3 UNK        -0.2001 
     29 N          26.0774   23.7777   -1.4139 N.am      3 UNK        -0.4354 
     30 C          25.4586   23.2281   -0.3614 C.2       2 UNK         0.4964 
     31 O          24.2396   23.2788   -0.1926 O.2       2 UNK        -0.5047 
     32 CA         26.3362   22.5425    0.7070 C.3       2 UNK         0.0288 
     33 CB         26.5047   21.0396    0.4081 C.3       2 UNK        -0.2113 
     34 N          27.6322   23.2030    0.9506 N.am      2 UNK        -0.4145 
     35 C          28.6782   23.3174    0.1176 C.2       1 UNK         0.5006 
     36 O          28.7296   22.7905   -0.9971 O.2       1 UNK        -0.5103 
     37 C          26.9907   29.3410    1.0190 C.2       5 UNK         0.5055 
     38 O          27.0843   30.4087    1.6269 O.2       5 UNK        -0.5220 
     39 N          27.3748   29.1877   -0.2558 N.am      6 UNK        -0.4450 
     40 CA         27.9243   30.2529   -1.0961 C.3       6 UNK         0.0367 
     41 CB         27.8234   29.8300   -2.5701 C.3       6 UNK        -0.1929 
     42 C          29.3699   30.6385   -0.7348 C.2       6 UNK         0.5070 
     43 O          29.7791   31.7601   -1.0347 O.2       6 UNK        -0.5237 
     44 N          30.1118   29.7221   -0.0982 N.am      7 UNK        -0.4739 
     45 CA         31.4975   29.9174    0.3407 C.3       7 UNK         0.0276 
     46 CB         32.4185   28.9355   -0.4088 C.3       7 UNK        -0.1927 
     47 C          31.6140   29.7897    1.8682 C.2       7 UNK         0.5013 
     48 O          32.5805   29.2069    2.3582 O.2       7 UNK        -0.5193 
     49 N          30.6353   30.3485    2.5961 N.am      8 UNK        -0.4253 
     50 CA         30.4725   30.2839    4.0576 C.3       8 UNK         0.0242 
     51 CB         29.3355   31.2355    4.4670 C.3       8 UNK        -0.2000 
     52 C          31.7238   30.6095    4.8955 C.2       8 UNK         0.4948 
     53 O          31.8903   30.0498    5.9785 O.2       8 UNK        -0.5275 
     54 N          32.5733   31.5126    4.3898 N.am      9 UNK        -0.4246 
     55 CA         33.8150   31.9373    5.0350 C.3       9 UNK         0.0261 
     56 CB         34.2512   33.2830    4.4318 C.3       9 UNK        -0.1959 
     57 C          34.9610   30.9132    4.9355 C.2       9 UNK         0.5033 
     58 O          35.9217   31.0380    5.6972 O.2       9 UNK        -0.5390 
     59 N          34.8796   29.9423    4.0102 N.am      10 UNK        -0.4215 
     60 CA         35.9756   29.0165    3.6932 C.3       10 UNK         0.0240 
     61 CB         35.6330   28.2091    2.4323 C.3       10 UNK        -0.1982 
     62 C          36.3753   28.0762    4.8434 C.2       10 UNK         0.4970 
     63 O          37.5398   27.6787    4.9042 O.2       10 UNK        -0.4916 
     64 N          35.4290   27.7530    5.7344 N.am      11 UNK        -0.4279 
     65 CA         35.6862   27.0010    6.9718 C.3       11 UNK         0.1003 
     66 C          36.2027   27.8687    8.1593 C.2       11 UNK         0.5709 
     67 N          36.3669   29.1799    8.0179 N.am      11 UNK        -0.7358 
     68 O          36.4852   27.3359    9.2302 O.2       11 UNK        -0.4999 
     69 C69        34.4939   26.0851    7.3540 C.3       12 UNK        -0.0954 
     70 S70        32.9374   26.9683    7.7142 S.3       12 UNK        -0.2268 
     71 C71        31.7104   25.6697    7.3551 C.3       12 UNK         0.0203 
     72 H72        29.5132   26.5318   -3.1388 H         1 UNK         0.0888 
     73 H73        30.4511   27.7190   -2.2340 H         1 UNK         0.0888 
     74 H74        31.1749   26.1698   -2.6632 H         1 UNK         0.0888 
     75 H75        31.0927   24.5633   -1.0786 H         1 UNK         0.3017 
     76 H76        29.4303   24.9049    1.3106 H         1 UNK         0.0873 
     77 H77        30.5343   22.8686    2.1429 H         1 UNK         0.0745 
     78 H78        31.3044   22.5994    0.6050 H         1 UNK         0.0745 
     79 H79        32.7473   26.6024    2.4206 H         1 UNK         0.0705 
     80 H80        31.3030   26.4364    1.4829 H         1 UNK         0.0705 
     81 H81        32.7707   25.5814    4.8306 H         1 UNK         0.1334 
     82 H82        29.0804   26.2440    6.9215 H         1 UNK         0.1417 
     83 H83        29.2098   26.5610    2.6584 H         1 UNK         0.1562 
     84 H84        27.0147   26.4131    5.6880 H         1 UNK         0.0748 
     85 H85        27.0267   26.0421    3.9824 H         1 UNK         0.0748 
     86 H86        25.2421   29.2367    3.1835 H         1 UNK         0.0940 
     87 H87        25.1687   27.5200    3.4286 H         1 UNK         0.0940 
     88 H88        27.1906   27.3638    1.7566 H         1 UNK         0.0703 
     89 H89        25.6325   26.5578    0.4432 H         1 UNK         0.3081 
     90 H90        22.5316   26.7884    0.0502 H         1 UNK         0.0719 
     91 H91        22.1075   28.8533   -1.2254 H         1 UNK         0.0809 
     92 H92        23.4901   28.5514   -2.2652 H         1 UNK         0.0809 
     93 H93        22.0878   27.4833   -2.3204 H         1 UNK         0.0809 
     94 H94        23.6210   25.1048   -0.8697 H         1 UNK         0.2990 
     95 H95        24.5672   24.0644   -2.8247 H         1 UNK         0.0690 
     96 H96        27.3972   25.1129   -3.3704 H         1 UNK         0.0788 
     97 H97        26.0392   25.2307   -4.4817 H         1 UNK         0.0788 
     98 H98        26.6798   23.6532   -4.0498 H         1 UNK         0.0788 
     99 H99        27.0814   23.6361   -1.4734 H         1 UNK         0.2993 
    100 H100       25.7869   22.6244    1.6467 H         1 UNK         0.0949 
    101 H101       25.5341   20.5443    0.3572 H         1 UNK         0.0767 
    102 H102       27.0053   20.8623   -0.5441 H         1 UNK         0.0767 
    103 H103       27.0813   20.5424    1.1883 H         1 UNK         0.0767 
    104 H104       27.6930   23.6774    1.8409 H         1 UNK         0.3013 
    105 H105       27.3190   28.2641   -0.6722 H         1 UNK         0.3121 
    106 H106       27.3086   31.1445   -0.9588 H         1 UNK         0.0774 
    107 H107       28.3769   28.9124   -2.7672 H         1 UNK         0.0815 
    108 H108       28.2217   30.6027   -3.2291 H         1 UNK         0.0815 
    109 H109       26.7864   29.6590   -2.8607 H         1 UNK         0.0815 
    110 H110       29.6833   28.8312    0.1191 H         1 UNK         0.2987 
    111 H111       31.8353   30.9281    0.1019 H         1 UNK         0.0949 
    112 H112       32.1688   27.8972   -0.1936 H         1 UNK         0.0806 
    113 H113       32.3570   29.0819   -1.4869 H         1 UNK         0.0806 
    114 H114       33.4621   29.0834   -0.1280 H         1 UNK         0.0806 
    115 H115       29.8839   30.7976    2.0910 H         1 UNK         0.3010 
    116 H116       30.1784   29.2607    4.2996 H         1 UNK         0.0829 
    117 H117       29.1071   31.1344    5.5290 H         1 UNK         0.0813 
    118 H118       29.5968   32.2789    4.2859 H         1 UNK         0.0813 
    119 H119       28.4171   31.0268    3.9199 H         1 UNK         0.0813 
    120 H120       32.3577   31.9228    3.4929 H         1 UNK         0.3038 
    121 H121       33.6135   32.0923    6.0973 H         1 UNK         0.0769 
    122 H122       34.4632   33.1984    3.3652 H         1 UNK         0.0811 
    123 H123       35.1570   33.6525    4.9150 H         1 UNK         0.0811 
    124 H124       33.4834   34.0456    4.5638 H         1 UNK         0.0811 
    125 H125       34.0336   29.8511    3.4515 H         1 UNK         0.3204 
    126 H126       36.8514   29.6280    3.4658 H         1 UNK         0.0748 
    127 H127       36.4731   27.5833    2.1283 H         1 UNK         0.0771 
    128 H128       34.7826   27.5506    2.6001 H         1 UNK         0.0771 
    129 H129       35.3937   28.8617    1.5926 H         1 UNK         0.0771 
    130 H130       34.5009   28.1381    5.6324 H         1 UNK         0.2980 
    131 H131       36.5132   26.3182    6.7684 H         1 UNK         0.0545 
    132 H132       36.7103   29.7140    8.7997 H         1 UNK         0.3459 
    133 H133       36.1688   29.6491    7.1411 H         1 UNK         0.3459 
    134 H134       34.3211   25.3783    6.5420 H         1 UNK         0.0616 
    135 H135       34.7458   25.4729    8.2217 H         1 UNK         0.0616 
    136 H136       30.9860   25.6565    8.1708 H         1 UNK         0.0634 
    137 H137       32.1807   24.6856    7.3571 H         1 UNK         0.0634 
@<TRIPOS>BOND
     1    1    2 1    
     2    1   72 1    
     3    1   73 1    
     4    1   74 1    
     5    2    3 2    
     6    2    4 am   BACKBONE|DICT|INTERRES
     7    4    5 1    
     8    4   75 1    
     9    5    6 1    
    10    5   35 1    
    11    5   76 1    
    12    6    7 1    
    13    6   77 1    
    14    6   78 1    
    15    7    8 1    
    16    8    9 1    
    17    8   79 1    
    18    8   80 1    
    19    9   10 ar   
    20    9   14 ar   
    21   10   11 ar   
    22   10   81 1    
    23   11   12 ar   
    24   11   71 1    
    25   12   13 ar   
    26   12   82 1    
    27   13   14 ar   
    28   13   15 1    
    29   14   83 1    
    30   15   16 1    
    31   15   84 1    
    32   15   85 1    
    33   16   17 1    
    34   17   18 1    
    35   17   86 1    
    36   17   87 1    
    37   18   19 1    
    38   18   37 1    
    39   18   88 1    
    40   19   20 am   BACKBONE|DICT|INTERRES
    41   19   89 1    
    42   20   21 2    
    43   20   22 1    
    44   22   23 1    
    45   22   24 1    
    46   22   90 1    
    47   23   91 1    
    48   23   92 1    
    49   23   93 1    
    50   24   25 am   BACKBONE|DICT|INTERRES
    51   24   94 1    
    52   25   26 2    
    53   25   27 1    
    54   27   28 1    
    55   27   29 1    
    56   27   95 1    
    57   28   96 1    
    58   28   97 1    
    59   28   98 1    
    60   29   30 am   BACKBONE|DICT|INTERRES
    61   29   99 1    
    62   30   31 2    
    63   30   32 1    
    64   32   33 1    
    65   32   34 1    
    66   32  100 1    
    67   33  101 1    
    68   33  102 1    
    69   33  103 1    
    70   34   35 am   BACKBONE|DICT|INTERRES
    71   34  104 1    
    72   35   36 2    
    73   37   38 2    
    74   37   39 am   BACKBONE|DICT|INTERRES
    75   39   40 1    
    76   39  105 1    
    77   40   41 1    
    78   40   42 1    
    79   40  106 1    
    80   41  107 1    
    81   41  108 1    
    82   41  109 1    
    83   42   43 2    
    84   42   44 am   BACKBONE|DICT|INTERRES
    85   44   45 1    
    86   44  110 1    
    87   45   46 1    
    88   45   47 1    
    89   45  111 1    
    90   46  112 1    
    91   46  113 1    
    92   46  114 1    
    93   47   48 2    
    94   47   49 am   BACKBONE|DICT|INTERRES
    95   49   50 1    
    96   49  115 1    
    97   50   51 1    
    98   50   52 1    
    99   50  116 1    
   100   51  117 1    
   101   51  118 1    
   102   51  119 1    
   103   52   53 2    
   104   52   54 am   BACKBONE|DICT|INTERRES
   105   54   55 1    
   106   54  120 1    
   107   55   56 1    
   108   55   57 1    
   109   55  121 1    
   110   56  122 1    
   111   56  123 1    
   112   56  124 1    
   113   57   58 2    
   114   57   59 am   BACKBONE|DICT|INTERRES
   115   59   60 1    
   116   59  125 1    
   117   60   61 1    
   118   60   62 1    
   119   60  126 1    
   120   61  127 1    
   121   61  128 1    
   122   61  129 1    
   123   62   63 2    
   124   62   64 am   BACKBONE|DICT|INTERRES
   125   64   65 1    
   126   64  130 1    
   127   65   66 1    
   128   65   69 1    
   129   65  131 1    
   130   66   67 am   BACKBONE|DICT|INTERRES
   131   66   68 2    
   132   67  132 1    
   133   67  133 1    
   134   69   70 1    
   135   69  134 1    
   136   69  135 1    
   137   70   71 1    
   138   71  136 1    
   139   71  137 1    
@<TRIPOS>SUBSTRUCTURE
     1 UNK         1 GROUP             0       ****    0 ROOT    
