@<TRIPOS>MOLECULE
3R136
137   139    1
SMALL
USER_CHARGES


@<TRIPOS>ATOM
      1 CA         30.9915   27.1484    0.5799 C.3       0 UNK        -0.1979 
      2 C          29.7613   26.2671    0.4429 C.2       0 UNK         0.4864 
      3 O          28.6494   26.7170    0.7421 O.2       0 UNK        -0.5359 
      4 N          29.9563   25.0139    0.0127 N.am      1 UNK        -0.4318 
      5 CA         28.9511   23.9579   -0.1868 C.3       1 UNK         0.0824 
      6 C6         29.5733   22.5968   -0.6168 C.3       12 UNK        -0.0944 
      7 S7         31.1027   22.7292   -1.6140 S.3       12 UNK        -0.2672 
      8 C8         32.3554   22.0472   -0.4747 C.3       12 UNK         0.0333 
      9 C9         32.4918   22.8616    0.8072 C.ar      12 UNK        -0.0807 
     10 C10        33.2632   24.0272    0.8277 C.ar      12 UNK        -0.0894 
     11 C11        33.4054   24.7735    2.0041 C.ar      12 UNK        -0.0804 
     12 C12        32.7544   24.3402    3.1675 C.ar      12 UNK        -0.0824 
     13 C13        31.9939   23.1677    3.1646 C.ar      12 UNK        -0.0762 
     14 C14        31.8721   22.4314    1.9840 C.ar      12 UNK        -0.0782 
     15 C15        31.3457   22.6569    4.4439 C.3       12 UNK         0.0230 
     16 S16        29.5342   22.8408    4.4192 S.3       12 UNK        -0.2608 
     17 C17        29.3065   24.5532    5.0116 C.3       12 UNK        -0.0989 
     18 CA         28.9185   25.5385    3.8761 C.3       5 UNK         0.0716 
     19 N          27.7392   25.1415    3.0960 N.am      5 UNK        -0.4135 
     20 C          26.5079   24.8844    3.5571 C.2       4 UNK         0.5031 
     21 O          26.1779   24.9595    4.7422 O.2       4 UNK        -0.5229 
     22 CA         25.4803   24.4540    2.4904 C.3       4 UNK         0.0329 
     23 CB         24.0817   24.1660    3.0783 C.3       4 UNK        -0.2001 
     24 N          25.3889   25.3931    1.3642 N.am      4 UNK        -0.4303 
     25 C          25.0332   26.6876    1.4185 C.2       3 UNK         0.5044 
     26 O          24.7482   27.2756    2.4612 O.2       3 UNK        -0.5152 
     27 CA         24.9771   27.4492    0.0821 C.3       3 UNK         0.0319 
     28 CB         25.1022   28.9744    0.2560 C.3       3 UNK        -0.2001 
     29 N          26.0073   26.9622   -0.8386 N.am      3 UNK        -0.4354 
     30 C          25.7855   26.5834   -2.1065 C.2       2 UNK         0.4964 
     31 O          24.7045   26.7184   -2.6808 O.2       2 UNK        -0.5047 
     32 CA         26.9467   25.9076   -2.8677 C.3       2 UNK         0.0288 
     33 CB         27.6063   26.8948   -3.8445 C.3       2 UNK        -0.2113 
     34 N          27.9798   25.3150   -2.0103 N.am      2 UNK        -0.4145 
     35 C          27.7709   24.3551   -1.0966 C.2       1 UNK         0.5006 
     36 O          26.6738   23.8289   -0.9022 O.2       1 UNK        -0.5103 
     37 C          28.7815   26.9988    4.3495 C.2       5 UNK         0.5055 
     38 O          28.9538   27.2874    5.5362 O.2       5 UNK        -0.5220 
     39 N          28.4582   27.8944    3.4053 N.am      6 UNK        -0.4450 
     40 CA         28.2724   29.3233    3.6643 C.3       6 UNK         0.0367 
     41 CB         26.8514   29.5836    4.1966 C.3       6 UNK        -0.1929 
     42 C          28.5652   30.2250    2.4560 C.2       6 UNK         0.5070 
     43 O          28.7192   31.4280    2.6625 O.2       6 UNK        -0.5237 
     44 N          28.6527   29.6869    1.2265 N.am      7 UNK        -0.4739 
     45 CA         28.7896   30.5002    0.0038 C.3       7 UNK         0.0276 
     46 CB         28.5501   29.6350   -1.2441 C.3       7 UNK        -0.1927 
     47 C          30.1161   31.2761   -0.1143 C.2       7 UNK         0.5013 
     48 O          30.1558   32.2935   -0.8066 O.2       7 UNK        -0.5193 
     49 N          31.1594   30.8019    0.5786 N.am      8 UNK        -0.4253 
     50 CA         32.4584   31.4688    0.7089 C.3       8 UNK         0.0242 
     51 CB         33.5728   30.4345    0.4758 C.3       8 UNK        -0.2000 
     52 C          32.6200   32.1672    2.0745 C.2       8 UNK         0.4948 
     53 O          33.7186   32.6360    2.3778 O.2       8 UNK        -0.5275 
     54 N          31.5459   32.2184    2.8794 N.am      9 UNK        -0.4246 
     55 CA         31.4228   32.7929    4.2244 C.3       9 UNK         0.0261 
     56 CB         31.6516   34.3179    4.2130 C.3       9 UNK        -0.1959 
     57 C          32.2815   32.0990    5.2952 C.2       9 UNK         0.5033 
     58 O          31.7268   31.5437    6.2440 O.2       9 UNK        -0.5390 
     59 N          33.6093   32.1517    5.1337 N.am      10 UNK        -0.4215 
     60 CA         34.6154   31.7308    6.1143 C.3       10 UNK         0.0240 
     61 CB         36.0158   32.0765    5.5824 C.3       10 UNK        -0.1982 
     62 C          34.5427   30.2479    6.5143 C.2       10 UNK         0.4970 
     63 O          34.7895   29.9287    7.6781 O.2       10 UNK        -0.4916 
     64 N          34.2066   29.3811    5.5531 N.am      11 UNK        -0.4279 
     65 CA         34.0227   27.9370    5.7551 C.3       11 UNK         0.1003 
     66 C          32.5671   27.5216    6.1189 C.2       11 UNK         0.5709 
     67 N          31.6143   28.4398    6.2329 N.am      11 UNK        -0.7358 
     68 O          32.2999   26.3368    6.3011 O.2       11 UNK        -0.4999 
     69 C69        34.5964   27.1322    4.5597 C.3       12 UNK        -0.0954 
     70 S70        33.7038   27.4064    2.9907 S.3       12 UNK        -0.2268 
     71 C71        34.3100   26.0067    1.9920 C.3       12 UNK         0.0203 
     72 H72        30.9591   27.9728   -0.1278 H         1 UNK         0.0888 
     73 H73        31.0485   27.5559    1.5881 H         1 UNK         0.0888 
     74 H74        31.9073   26.5930    0.3878 H         1 UNK         0.0888 
     75 H75        30.8976   24.7137   -0.2054 H         1 UNK         0.3017 
     76 H76        28.5032   23.7902    0.7932 H         1 UNK         0.0873 
     77 H77        29.7813   22.0047    0.2730 H         1 UNK         0.0745 
     78 H78        28.8620   21.9844   -1.1753 H         1 UNK         0.0745 
     79 H79        32.1037   21.0105   -0.2453 H         1 UNK         0.0705 
     80 H80        33.3170   22.0160   -0.9892 H         1 UNK         0.0705 
     81 H81        33.7653   24.3455   -0.0761 H         1 UNK         0.1334 
     82 H82        32.8514   24.8975    4.0869 H         1 UNK         0.1417 
     83 H83        31.2951   21.5167    1.9885 H         1 UNK         0.1562 
     84 H84        31.7631   23.1510    5.3229 H         1 UNK         0.0748 
     85 H85        31.5824   21.5981    4.5583 H         1 UNK         0.0748 
     86 H86        30.2213   24.8881    5.5021 H         1 UNK         0.0940 
     87 H87        28.5446   24.5443    5.7925 H         1 UNK         0.0940 
     88 H88        29.7581   25.5371    3.1812 H         1 UNK         0.0703 
     89 H89        27.8711   25.1484    2.0955 H         1 UNK         0.3081 
     90 H90        25.8529   23.5167    2.0737 H         1 UNK         0.0719 
     91 H91        23.6470   25.0497    3.5466 H         1 UNK         0.0809 
     92 H92        23.3914   23.8200    2.3091 H         1 UNK         0.0809 
     93 H93        24.1325   23.3878    3.8409 H         1 UNK         0.0809 
     94 H94        25.5995   24.9964    0.4540 H         1 UNK         0.2990 
     95 H95        23.9861   27.2430   -0.3272 H         1 UNK         0.0690 
     96 H96        25.0771   29.4881   -0.7050 H         1 UNK         0.0788 
     97 H97        26.0261   29.2467    0.7621 H         1 UNK         0.0788 
     98 H98        24.2787   29.3684    0.8528 H         1 UNK         0.0788 
     99 H99        26.9301   26.8240   -0.4398 H         1 UNK         0.2993 
    100 H100       26.5070   25.0956   -3.4509 H         1 UNK         0.0949 
    101 H101       26.8654   27.3422   -4.5088 H         1 UNK         0.0767 
    102 H102       28.1082   27.7086   -3.3221 H         1 UNK         0.0767 
    103 H103       28.3428   26.3961   -4.4750 H         1 UNK         0.0767 
    104 H104       28.9138   25.6867   -2.1008 H         1 UNK         0.3013 
    105 H105       28.3251   27.5651    2.4555 H         1 UNK         0.3121 
    106 H106       28.9847   29.6274    4.4351 H         1 UNK         0.0774 
    107 H107       26.0934   29.3208    3.4590 H         1 UNK         0.0815 
    108 H108       26.7123   30.6366    4.4450 H         1 UNK         0.0815 
    109 H109       26.6508   29.0103    5.1016 H         1 UNK         0.0815 
    110 H110       28.5319   28.6908    1.0914 H         1 UNK         0.2987 
    111 H111       27.9993   31.2543    0.0304 H         1 UNK         0.0949 
    112 H112       29.2584   28.8135   -1.3247 H         1 UNK         0.0806 
    113 H113       27.5466   29.2156   -1.2487 H         1 UNK         0.0806 
    114 H114       28.6447   30.2304   -2.1535 H         1 UNK         0.0806 
    115 H115       31.0222   29.9662    1.1268 H         1 UNK         0.3010 
    116 H116       32.5606   32.2453   -0.0521 H         1 UNK         0.0829 
    117 H117       34.5576   30.9028    0.5021 H         1 UNK         0.0813 
    118 H118       33.5629   29.6560    1.2361 H         1 UNK         0.0813 
    119 H119       33.4712   29.9541   -0.4975 H         1 UNK         0.0813 
    120 H120       30.6751   31.8331    2.5273 H         1 UNK         0.3038 
    121 H121       30.3832   32.6308    4.5143 H         1 UNK         0.0769 
    122 H122       32.6622   34.5845    3.9028 H         1 UNK         0.0811 
    123 H123       31.4958   34.7416    5.2060 H         1 UNK         0.0811 
    124 H124       30.9549   34.8144    3.5376 H         1 UNK         0.0811 
    125 H125       33.9445   32.5470    4.2575 H         1 UNK         0.3204 
    126 H126       34.4431   32.3157    7.0202 H         1 UNK         0.0748 
    127 H127       36.7884   31.7926    6.2985 H         1 UNK         0.0771 
    128 H128       36.2308   31.5588    4.6464 H         1 UNK         0.0771 
    129 H129       36.1192   33.1471    5.4044 H         1 UNK         0.0771 
    130 H130       34.0064   29.7270    4.6268 H         1 UNK         0.2980 
    131 H131       34.6153   27.6412    6.6226 H         1 UNK         0.0545 
    132 H132       30.6648   28.1266    6.3916 H         1 UNK         0.3459 
    133 H133       31.8151   29.4283    6.1529 H         1 UNK         0.3459 
    134 H134       35.6410   27.4056    4.4031 H         1 UNK         0.0616 
    135 H135       34.6103   26.0675    4.7951 H         1 UNK         0.0616 
    136 H136       35.3080   25.7201    2.3257 H         1 UNK         0.0634 
    137 H137       34.4260   26.3691    0.9695 H         1 UNK         0.0634 
@<TRIPOS>BOND
     1    1    2 1    
     2    1   72 1    
     3    1   73 1    
     4    1   74 1    
     5    2    3 2    
     6    2    4 am   BACKBONE|DICT|INTERRES
     7    4    5 1    
     8    4   75 1    
     9    5    6 1    
    10    5   35 1    
    11    5   76 1    
    12    6    7 1    
    13    6   77 1    
    14    6   78 1    
    15    7    8 1    
    16    8    9 1    
    17    8   79 1    
    18    8   80 1    
    19    9   10 ar   
    20    9   14 ar   
    21   10   11 ar   
    22   10   81 1    
    23   11   12 ar   
    24   11   71 1    
    25   12   13 ar   
    26   12   82 1    
    27   13   14 ar   
    28   13   15 1    
    29   14   83 1    
    30   15   16 1    
    31   15   84 1    
    32   15   85 1    
    33   16   17 1    
    34   17   18 1    
    35   17   86 1    
    36   17   87 1    
    37   18   19 1    
    38   18   37 1    
    39   18   88 1    
    40   19   20 am   BACKBONE|DICT|INTERRES
    41   19   89 1    
    42   20   21 2    
    43   20   22 1    
    44   22   23 1    
    45   22   24 1    
    46   22   90 1    
    47   23   91 1    
    48   23   92 1    
    49   23   93 1    
    50   24   25 am   BACKBONE|DICT|INTERRES
    51   24   94 1    
    52   25   26 2    
    53   25   27 1    
    54   27   28 1    
    55   27   29 1    
    56   27   95 1    
    57   28   96 1    
    58   28   97 1    
    59   28   98 1    
    60   29   30 am   BACKBONE|DICT|INTERRES
    61   29   99 1    
    62   30   31 2    
    63   30   32 1    
    64   32   33 1    
    65   32   34 1    
    66   32  100 1    
    67   33  101 1    
    68   33  102 1    
    69   33  103 1    
    70   34   35 am   BACKBONE|DICT|INTERRES
    71   34  104 1    
    72   35   36 2    
    73   37   38 2    
    74   37   39 am   BACKBONE|DICT|INTERRES
    75   39   40 1    
    76   39  105 1    
    77   40   41 1    
    78   40   42 1    
    79   40  106 1    
    80   41  107 1    
    81   41  108 1    
    82   41  109 1    
    83   42   43 2    
    84   42   44 am   BACKBONE|DICT|INTERRES
    85   44   45 1    
    86   44  110 1    
    87   45   46 1    
    88   45   47 1    
    89   45  111 1    
    90   46  112 1    
    91   46  113 1    
    92   46  114 1    
    93   47   48 2    
    94   47   49 am   BACKBONE|DICT|INTERRES
    95   49   50 1    
    96   49  115 1    
    97   50   51 1    
    98   50   52 1    
    99   50  116 1    
   100   51  117 1    
   101   51  118 1    
   102   51  119 1    
   103   52   53 2    
   104   52   54 am   BACKBONE|DICT|INTERRES
   105   54   55 1    
   106   54  120 1    
   107   55   56 1    
   108   55   57 1    
   109   55  121 1    
   110   56  122 1    
   111   56  123 1    
   112   56  124 1    
   113   57   58 2    
   114   57   59 am   BACKBONE|DICT|INTERRES
   115   59   60 1    
   116   59  125 1    
   117   60   61 1    
   118   60   62 1    
   119   60  126 1    
   120   61  127 1    
   121   61  128 1    
   122   61  129 1    
   123   62   63 2    
   124   62   64 am   BACKBONE|DICT|INTERRES
   125   64   65 1    
   126   64  130 1    
   127   65   66 1    
   128   65   69 1    
   129   65  131 1    
   130   66   67 am   BACKBONE|DICT|INTERRES
   131   66   68 2    
   132   67  132 1    
   133   67  133 1    
   134   69   70 1    
   135   69  134 1    
   136   69  135 1    
   137   70   71 1    
   138   71  136 1    
   139   71  137 1    
@<TRIPOS>SUBSTRUCTURE
     1 UNK         1 GROUP             0       ****    0 ROOT    
