@<TRIPOS>MOLECULE
3R136
137   139    1
SMALL
USER_CHARGES


@<TRIPOS>ATOM
      1 CA         29.3539   28.2898   -1.8871 C.3       0 UNK        -0.1979 
      2 C          29.4734   27.0885   -0.9632 C.2       0 UNK         0.4864 
      3 O          29.5036   27.2586    0.2557 O.2       0 UNK        -0.5359 
      4 N          29.5352   25.8800   -1.5402 N.am      1 UNK        -0.4318 
      5 CA         29.5980   24.5965   -0.8304 C.3       1 UNK         0.0824 
      6 C6         30.3723   23.5409   -1.6725 C.3       12 UNK        -0.0944 
      7 S7         30.8256   21.9863   -0.8187 S.3       12 UNK        -0.2672 
      8 C8         32.2429   22.4738    0.2200 C.3       12 UNK         0.0333 
      9 C9         31.8326   23.2740    1.4520 C.ar      12 UNK        -0.0807 
     10 C10        32.4567   24.4942    1.7305 C.ar      12 UNK        -0.0894 
     11 C11        32.1006   25.2330    2.8622 C.ar      12 UNK        -0.0804 
     12 C12        31.1147   24.7433    3.7217 C.ar      12 UNK        -0.0824 
     13 C13        30.4628   23.5387    3.4439 C.ar      12 UNK        -0.0762 
     14 C14        30.8364   22.8013    2.3159 C.ar      12 UNK        -0.0782 
     15 C15        29.3570   23.0349    4.3624 C.3       12 UNK         0.0230 
     16 S16        27.7203   23.6877    3.8878 S.3       12 UNK        -0.2608 
     17 C17        27.8339   25.4293    4.4229 C.3       12 UNK        -0.0989 
     18 CA         28.1058   26.3795    3.2249 C.3       5 UNK         0.0716 
     19 N          26.9731   26.4879    2.2968 N.am      5 UNK        -0.4135 
     20 C          25.7962   27.0934    2.5115 C.2       4 UNK         0.5031 
     21 O          25.4566   27.5748    3.5930 O.2       4 UNK        -0.5229 
     22 CA         24.8340   27.2154    1.3191 C.3       4 UNK         0.0329 
     23 CB         25.1824   28.4577    0.4795 C.3       4 UNK        -0.2001 
     24 N          24.8204   26.0300    0.4557 N.am      4 UNK        -0.4303 
     25 C          23.7228   25.5181   -0.1210 C.2       3 UNK         0.5044 
     26 O          22.5896   25.9710    0.0495 O.2       3 UNK        -0.5152 
     27 CA         23.8960   24.3133   -1.0715 C.3       3 UNK         0.0319 
     28 CB         23.8623   24.7825   -2.5354 C.3       3 UNK        -0.2001 
     29 N          25.1234   23.5458   -0.8505 N.am      3 UNK        -0.4354 
     30 C          25.3710   22.7935    0.2293 C.2       2 UNK         0.4964 
     31 O          24.5349   22.5716    1.1058 O.2       2 UNK        -0.5047 
     32 CA         26.7832   22.1902    0.3778 C.3       2 UNK         0.0288 
     33 CB         26.7751   20.7132   -0.0494 C.3       2 UNK        -0.2113 
     34 N          27.9019   22.8666   -0.3006 N.am      2 UNK        -0.4145 
     35 C          28.1946   24.1744   -0.3273 C.2       1 UNK         0.5006 
     36 O          27.4074   25.0430    0.0463 O.2       1 UNK        -0.5103 
     37 C          28.6137   27.7763    3.6443 C.2       5 UNK         0.5055 
     38 O          28.7057   28.0802    4.8357 O.2       5 UNK        -0.5220 
     39 N          28.9098   28.6094    2.6409 N.am      6 UNK        -0.4450 
     40 CA         29.2694   30.0165    2.7805 C.3       6 UNK         0.0367 
     41 CB         28.0133   30.8618    3.0768 C.3       6 UNK        -0.1929 
     42 C          30.0034   30.4662    1.5112 C.2       6 UNK         0.5070 
     43 O          29.4879   31.2854    0.7469 O.2       6 UNK        -0.5237 
     44 N          31.1890   29.8896    1.2793 N.am      7 UNK        -0.4739 
     45 CA         32.0652   30.1999    0.1476 C.3       7 UNK         0.0276 
     46 CB         33.0567   29.0391   -0.0513 C.3       7 UNK        -0.1927 
     47 C          32.7731   31.5499    0.3612 C.2       7 UNK         0.5013 
     48 O          33.9412   31.5768    0.7546 O.2       7 UNK        -0.5193 
     49 N          32.0241   32.6440    0.1615 N.am      8 UNK        -0.4253 
     50 CA         32.3655   34.0596    0.3790 C.3       8 UNK         0.0242 
     51 CB         33.5861   34.4980   -0.4546 C.3       8 UNK        -0.2000 
     52 C          32.5300   34.4295    1.8648 C.2       8 UNK         0.4948 
     53 O          31.9237   35.4034    2.3139 O.2       8 UNK        -0.5275 
     54 N          33.3172   33.6345    2.5956 N.am      9 UNK        -0.4246 
     55 CA         33.4139   33.6243    4.0523 C.3       9 UNK         0.0261 
     56 CB         34.9019   33.5365    4.4512 C.3       9 UNK        -0.1959 
     57 C          32.5483   32.4624    4.5779 C.2       9 UNK         0.5033 
     58 O          31.4058   32.3152    4.1397 O.2       9 UNK        -0.5390 
     59 N          33.0920   31.6462    5.4852 N.am      10 UNK        -0.4215 
     60 CA         32.4849   30.4213    5.9949 C.3       10 UNK         0.0240 
     61 CB         31.6028   30.7345    7.2163 C.3       10 UNK        -0.1982 
     62 C          33.6118   29.4474    6.3512 C.2       10 UNK         0.4970 
     63 O          34.7188   29.8910    6.6692 O.2       10 UNK        -0.4916 
     64 N          33.3049   28.1485    6.2935 N.am      11 UNK        -0.4279 
     65 CA         34.2468   27.0508    6.5729 C.3       11 UNK         0.1003 
     66 C          34.2089   26.5529    8.0475 C.2       11 UNK         0.5709 
     67 N          33.3629   27.0958    8.9156 N.am      11 UNK        -0.7358 
     68 O          34.9752   25.6668    8.4182 O.2       11 UNK        -0.4999 
     69 C69        34.0641   25.8829    5.5670 C.3       12 UNK        -0.0954 
     70 S70        34.4256   26.3858    3.8489 S.3       12 UNK        -0.2268 
     71 C71        32.7617   26.5741    3.1377 C.3       12 UNK         0.0203 
     72 H72        28.8547   29.1137   -1.3772 H         1 UNK         0.0888 
     73 H73        30.3431   28.6265   -2.1944 H         1 UNK         0.0888 
     74 H74        28.7779   28.0479   -2.7799 H         1 UNK         0.0888 
     75 H75        29.4790   25.8182   -2.5465 H         1 UNK         0.3017 
     76 H76        30.1729   24.7760    0.0767 H         1 UNK         0.0873 
     77 H77        31.2987   23.9829   -2.0438 H         1 UNK         0.0745 
     78 H78        29.7982   23.2806   -2.5637 H         1 UNK         0.0745 
     79 H79        32.9592   23.0263   -0.3902 H         1 UNK         0.0705 
     80 H80        32.7560   21.5706    0.5525 H         1 UNK         0.0705 
     81 H81        33.2224   24.8740    1.0675 H         1 UNK         0.1334 
     82 H82        30.8399   25.3129    4.5978 H         1 UNK         0.1417 
     83 H83        30.3428   21.8629    2.1022 H         1 UNK         0.1562 
     84 H84        29.5738   23.2948    5.3997 H         1 UNK         0.0748 
     85 H85        29.3184   21.9450    4.3290 H         1 UNK         0.0748 
     86 H86        28.6116   25.5105    5.1830 H         1 UNK         0.0940 
     87 H87        26.9069   25.7034    4.9284 H         1 UNK         0.0940 
     88 H88        28.9149   25.9492    2.6343 H         1 UNK         0.0703 
     89 H89        27.1602   26.0971    1.3744 H         1 UNK         0.3081 
     90 H90        23.8392   27.3625    1.7455 H         1 UNK         0.0719 
     91 H91        25.2063   29.3555    1.0989 H         1 UNK         0.0809 
     92 H92        26.1601   28.3613    0.0051 H         1 UNK         0.0809 
     93 H93        24.4442   28.6252   -0.3049 H         1 UNK         0.0809 
     94 H94        25.7171   25.5855    0.2679 H         1 UNK         0.2990 
     95 H95        23.0472   23.6457   -0.9081 H         1 UNK         0.0690 
     96 H96        24.6976   25.4454   -2.7655 H         1 UNK         0.0788 
     97 H97        22.9433   25.3303   -2.7490 H         1 UNK         0.0788 
     98 H98        23.9013   23.9386   -3.2245 H         1 UNK         0.0788 
     99 H99        25.8737   23.6860   -1.5111 H         1 UNK         0.2993 
    100 H100       27.0125   22.2244    1.4436 H         1 UNK         0.0949 
    101 H101       26.6124   20.6074   -1.1227 H         1 UNK         0.0767 
    102 H102       27.7169   20.2226    0.1981 H         1 UNK         0.0767 
    103 H103       25.9829   20.1603    0.4577 H         1 UNK         0.0767 
    104 H104       28.6328   22.2517   -0.6380 H         1 UNK         0.3013 
    105 H105       28.9356   28.2324    1.6914 H         1 UNK         0.3121 
    106 H106       29.9634   30.1251    3.6155 H         1 UNK         0.0774 
    107 H107       28.2695   31.9188    3.1598 H         1 UNK         0.0815 
    108 H108       27.2670   30.7633    2.2877 H         1 UNK         0.0815 
    109 H109       27.5469   30.5685    4.0172 H         1 UNK         0.0815 
    110 H110       31.5366   29.2198    1.9483 H         1 UNK         0.2987 
    111 H111       31.4603   30.2803   -0.7579 H         1 UNK         0.0949 
    112 H112       33.7000   29.2227   -0.9127 H         1 UNK         0.0806 
    113 H113       33.7062   28.9053    0.8145 H         1 UNK         0.0806 
    114 H114       32.5357   28.0982   -0.2309 H         1 UNK         0.0806 
    115 H115       31.0428   32.4709   -0.0338 H         1 UNK         0.3010 
    116 H116       31.5056   34.6231    0.0128 H         1 UNK         0.0829 
    117 H117       33.4395   34.2854   -1.5135 H         1 UNK         0.0813 
    118 H118       33.7528   35.5717   -0.3597 H         1 UNK         0.0813 
    119 H119       34.5034   34.0016   -0.1369 H         1 UNK         0.0813 
    120 H120       33.7296   32.8412    2.1094 H         1 UNK         0.3038 
    121 H121       33.0022   34.5467    4.4665 H         1 UNK         0.0769 
    122 H122       35.4684   34.3619    4.0194 H         1 UNK         0.0811 
    123 H123       35.0304   33.6007    5.5325 H         1 UNK         0.0811 
    124 H124       35.3640   32.6092    4.1091 H         1 UNK         0.0811 
    125 H125       34.0527   31.7834    5.7758 H         1 UNK         0.3204 
    126 H126       31.8743   29.9666    5.2115 H         1 UNK         0.0748 
    127 H127       30.8014   31.4267    6.9570 H         1 UNK         0.0771 
    128 H128       31.1328   29.8303    7.6048 H         1 UNK         0.0771 
    129 H129       32.1807   31.1805    8.0269 H         1 UNK         0.0771 
    130 H130       32.3616   27.8726    6.0665 H         1 UNK         0.2980 
    131 H131       35.2634   27.4243    6.4356 H         1 UNK         0.0545 
    132 H132       33.3571   26.7661    9.8680 H         1 UNK         0.3459 
    133 H133       32.7405   27.8350    8.6340 H         1 UNK         0.3459 
    134 H134       34.7459   25.0638    5.8025 H         1 UNK         0.0616 
    135 H135       33.0596   25.4660    5.6383 H         1 UNK         0.0616 
    136 H136       32.8445   27.1255    2.2015 H         1 UNK         0.0634 
    137 H137       32.1442   27.1867    3.7956 H         1 UNK         0.0634 
@<TRIPOS>BOND
     1    1    2 1    
     2    1   72 1    
     3    1   73 1    
     4    1   74 1    
     5    2    3 2    
     6    2    4 am   BACKBONE|DICT|INTERRES
     7    4    5 1    
     8    4   75 1    
     9    5    6 1    
    10    5   35 1    
    11    5   76 1    
    12    6    7 1    
    13    6   77 1    
    14    6   78 1    
    15    7    8 1    
    16    8    9 1    
    17    8   79 1    
    18    8   80 1    
    19    9   10 ar   
    20    9   14 ar   
    21   10   11 ar   
    22   10   81 1    
    23   11   12 ar   
    24   11   71 1    
    25   12   13 ar   
    26   12   82 1    
    27   13   14 ar   
    28   13   15 1    
    29   14   83 1    
    30   15   16 1    
    31   15   84 1    
    32   15   85 1    
    33   16   17 1    
    34   17   18 1    
    35   17   86 1    
    36   17   87 1    
    37   18   19 1    
    38   18   37 1    
    39   18   88 1    
    40   19   20 am   BACKBONE|DICT|INTERRES
    41   19   89 1    
    42   20   21 2    
    43   20   22 1    
    44   22   23 1    
    45   22   24 1    
    46   22   90 1    
    47   23   91 1    
    48   23   92 1    
    49   23   93 1    
    50   24   25 am   BACKBONE|DICT|INTERRES
    51   24   94 1    
    52   25   26 2    
    53   25   27 1    
    54   27   28 1    
    55   27   29 1    
    56   27   95 1    
    57   28   96 1    
    58   28   97 1    
    59   28   98 1    
    60   29   30 am   BACKBONE|DICT|INTERRES
    61   29   99 1    
    62   30   31 2    
    63   30   32 1    
    64   32   33 1    
    65   32   34 1    
    66   32  100 1    
    67   33  101 1    
    68   33  102 1    
    69   33  103 1    
    70   34   35 am   BACKBONE|DICT|INTERRES
    71   34  104 1    
    72   35   36 2    
    73   37   38 2    
    74   37   39 am   BACKBONE|DICT|INTERRES
    75   39   40 1    
    76   39  105 1    
    77   40   41 1    
    78   40   42 1    
    79   40  106 1    
    80   41  107 1    
    81   41  108 1    
    82   41  109 1    
    83   42   43 2    
    84   42   44 am   BACKBONE|DICT|INTERRES
    85   44   45 1    
    86   44  110 1    
    87   45   46 1    
    88   45   47 1    
    89   45  111 1    
    90   46  112 1    
    91   46  113 1    
    92   46  114 1    
    93   47   48 2    
    94   47   49 am   BACKBONE|DICT|INTERRES
    95   49   50 1    
    96   49  115 1    
    97   50   51 1    
    98   50   52 1    
    99   50  116 1    
   100   51  117 1    
   101   51  118 1    
   102   51  119 1    
   103   52   53 2    
   104   52   54 am   BACKBONE|DICT|INTERRES
   105   54   55 1    
   106   54  120 1    
   107   55   56 1    
   108   55   57 1    
   109   55  121 1    
   110   56  122 1    
   111   56  123 1    
   112   56  124 1    
   113   57   58 2    
   114   57   59 am   BACKBONE|DICT|INTERRES
   115   59   60 1    
   116   59  125 1    
   117   60   61 1    
   118   60   62 1    
   119   60  126 1    
   120   61  127 1    
   121   61  128 1    
   122   61  129 1    
   123   62   63 2    
   124   62   64 am   BACKBONE|DICT|INTERRES
   125   64   65 1    
   126   64  130 1    
   127   65   66 1    
   128   65   69 1    
   129   65  131 1    
   130   66   67 am   BACKBONE|DICT|INTERRES
   131   66   68 2    
   132   67  132 1    
   133   67  133 1    
   134   69   70 1    
   135   69  134 1    
   136   69  135 1    
   137   70   71 1    
   138   71  136 1    
   139   71  137 1    
@<TRIPOS>SUBSTRUCTURE
     1 UNK         1 GROUP             0       ****    0 ROOT    
