@<TRIPOS>MOLECULE
3R136
137   139    1
SMALL
USER_CHARGES


@<TRIPOS>ATOM
      1 CA         34.0519   22.7614    2.3842 C.3       0 UNK        -0.1979 
      2 C          32.8011   23.1713    1.6227 C.2       0 UNK         0.4864 
      3 O          32.4866   24.3591    1.5537 O.2       0 UNK        -0.5359 
      4 N          32.1041   22.1982    1.0180 N.am      1 UNK        -0.4318 
      5 CA         30.8107   22.3523    0.3289 C.3       1 UNK         0.0824 
      6 C6         30.1739   20.9847   -0.0390 C.3       12 UNK        -0.0944 
      7 S7         30.1911   19.7528    1.3088 S.3       12 UNK        -0.2672 
      8 C8         28.6193   20.0947    2.1743 C.3       12 UNK         0.0333 
      9 C9         28.6485   21.3469    3.0494 C.ar      12 UNK        -0.0807 
     10 C10        29.7778   21.6730    3.8110 C.ar      12 UNK        -0.0894 
     11 C11        29.7883   22.8080    4.6261 C.ar      12 UNK        -0.0804 
     12 C12        28.6474   23.6119    4.6961 C.ar      12 UNK        -0.0824 
     13 C13        27.5078   23.2964    3.9511 C.ar      12 UNK        -0.0762 
     14 C14        27.5143   22.1631    3.1304 C.ar      12 UNK        -0.0782 
     15 C15        26.2709   24.1776    4.0466 C.3       12 UNK         0.0230 
     16 S16        26.0358   25.1527    2.5285 S.3       12 UNK        -0.2608 
     17 C17        25.1933   26.6451    3.1634 C.3       12 UNK        -0.0989 
     18 CA         26.1135   27.8901    3.0887 C.3       5 UNK         0.0716 
     19 N          26.5373   28.1492    1.7080 N.am      5 UNK        -0.4135 
     20 C          27.2401   29.1870    1.2389 C.2       4 UNK         0.5031 
     21 O          27.5736   30.1743    1.8986 O.2       4 UNK        -0.5229 
     22 CA         27.7128   29.0668   -0.2131 C.3       4 UNK         0.0329 
     23 CB         27.3922   30.3213   -1.0402 C.3       4 UNK        -0.2001 
     24 N          29.1560   28.8535   -0.1833 N.am      4 UNK        -0.4303 
     25 C          29.7207   27.6452   -0.0868 C.2       3 UNK         0.5044 
     26 O          29.0783   26.5923   -0.0724 O.2       3 UNK        -0.5152 
     27 CA         31.2524   27.6080    0.0443 C.3       3 UNK         0.0319 
     28 CB         31.6691   27.6735    1.5229 C.3       3 UNK        -0.2001 
     29 N          31.8004   26.3903   -0.5580 N.am      3 UNK        -0.4354 
     30 C          31.8319   26.1530   -1.8799 C.2       2 UNK         0.4964 
     31 O          31.5431   26.9978   -2.7290 O.2       2 UNK        -0.5047 
     32 CA         32.2498   24.7456   -2.3513 C.3       2 UNK         0.0288 
     33 CB         33.7275   24.7351   -2.7761 C.3       2 UNK        -0.2113 
     34 N          32.0373   23.7126   -1.3372 N.am      2 UNK        -0.4145 
     35 C          30.8415   23.2758   -0.9143 C.2       1 UNK         0.5006 
     36 O          29.7823   23.5708   -1.4700 O.2       1 UNK        -0.5103 
     37 C          25.4617   29.1175    3.7586 C.2       5 UNK         0.5055 
     38 O          24.3007   29.4223    3.4781 O.2       5 UNK        -0.5220 
     39 N          26.2469   29.7984    4.6082 N.am      6 UNK        -0.4450 
     40 CA         25.9275   31.0319    5.3388 C.3       6 UNK         0.0367 
     41 CB         24.7996   30.7849    6.3644 C.3       6 UNK        -0.1929 
     42 C          25.6500   32.2532    4.4343 C.2       6 UNK         0.5070 
     43 O          24.9789   33.1870    4.8778 O.2       6 UNK        -0.5237 
     44 N          26.1691   32.2416    3.1988 N.am      7 UNK        -0.4739 
     45 CA         25.9698   33.2915    2.1992 C.3       7 UNK         0.0276 
     46 CB         25.1148   32.7439    1.0454 C.3       7 UNK        -0.1927 
     47 C          27.2945   33.8673    1.6786 C.2       7 UNK         0.5013 
     48 O          27.3786   35.0872    1.5266 O.2       7 UNK        -0.5193 
     49 N          28.3035   33.0222    1.4173 N.am      8 UNK        -0.4253 
     50 CA         29.6087   33.4511    0.9056 C.3       8 UNK         0.0242 
     51 CB         29.5291   33.7847   -0.5981 C.3       8 UNK        -0.2000 
     52 C          30.6683   32.3742    1.1563 C.2       8 UNK         0.4948 
     53 O          30.3735   31.1849    1.0196 O.2       8 UNK        -0.5275 
     54 N          31.8913   32.8278    1.4664 N.am      9 UNK        -0.4246 
     55 CA         33.0670   32.0339    1.8460 C.3       9 UNK         0.0261 
     56 CB         33.5051   31.0959    0.6974 C.3       9 UNK        -0.1959 
     57 C          32.8707   31.3162    3.1983 C.2       9 UNK         0.5033 
     58 O          32.0388   31.7426    4.0041 O.2       9 UNK        -0.5390 
     59 N          33.6662   30.2722    3.4495 N.am      10 UNK        -0.4215 
     60 CA         33.6372   29.4570    4.6591 C.3       10 UNK         0.0240 
     61 CB         34.4251   30.1509    5.7871 C.3       10 UNK        -0.1982 
     62 C          34.2326   28.0838    4.3370 C.2       10 UNK         0.4970 
     63 O          34.9991   27.9599    3.3779 O.2       10 UNK        -0.4916 
     64 N          33.8776   27.0901    5.1560 N.am      11 UNK        -0.4279 
     65 CA         34.3300   25.6949    5.0356 C.3       11 UNK         0.1003 
     66 C          35.7944   25.4420    5.4994 C.2       11 UNK         0.5709 
     67 N          36.4688   26.3922    6.1367 N.am      11 UNK        -0.7358 
     68 O          36.3323   24.3622    5.2667 O.2       11 UNK        -0.4999 
     69 C69        33.3426   24.7300    5.7423 C.3       12 UNK        -0.0954 
     70 S70        31.6915   24.7851    4.9732 S.3       12 UNK        -0.2268 
     71 C71        31.0280   23.1568    5.4376 C.3       12 UNK         0.0203 
     72 H72        33.8627   22.7955    3.4557 H         1 UNK         0.0888 
     73 H73        34.3713   21.7518    2.1266 H         1 UNK         0.0888 
     74 H74        34.8720   23.4432    2.1607 H         1 UNK         0.0888 
     75 H75        32.4195   21.2420    1.1046 H         1 UNK         0.3017 
     76 H76        30.1452   22.8453    1.0408 H         1 UNK         0.0873 
     77 H77        29.1441   21.1214   -0.3748 H         1 UNK         0.0745 
     78 H78        30.7057   20.5395   -0.8823 H         1 UNK         0.0745 
     79 H79        28.3879   19.2414    2.8130 H         1 UNK         0.0705 
     80 H80        27.8155   20.1532    1.4387 H         1 UNK         0.0705 
     81 H81        30.6545   21.0420    3.7680 H         1 UNK         0.1334 
     82 H82        28.6534   24.4885    5.3296 H         1 UNK         0.1417 
     83 H83        26.6302   21.9190    2.5567 H         1 UNK         0.1562 
     84 H84        26.3562   24.8443    4.9060 H         1 UNK         0.0748 
     85 H85        25.3875   23.5616    4.2211 H         1 UNK         0.0748 
     86 H86        24.8550   26.4719    4.1869 H         1 UNK         0.0940 
     87 H87        24.2875   26.8030    2.5742 H         1 UNK         0.0940 
     88 H88        27.0229   27.6544    3.6456 H         1 UNK         0.0703 
     89 H89        26.3614   27.3830    1.0740 H         1 UNK         0.3081 
     90 H90        27.2182   28.2202   -0.6948 H         1 UNK         0.0719 
     91 H91        27.7895   31.2241   -0.5813 H         1 UNK         0.0809 
     92 H92        27.8078   30.2489   -2.0453 H         1 UNK         0.0809 
     93 H93        26.3149   30.4502   -1.1463 H         1 UNK         0.0809 
     94 H94        29.7227   29.6805   -0.0064 H         1 UNK         0.2990 
     95 H95        31.6699   28.4699   -0.4797 H         1 UNK         0.0690 
     96 H96        32.7536   27.6564    1.6275 H         1 UNK         0.0788 
     97 H97        31.2665   26.8345    2.0929 H         1 UNK         0.0788 
     98 H98        31.3093   28.5907    1.9918 H         1 UNK         0.0788 
     99 H99        32.0255   25.6370    0.0861 H         1 UNK         0.2993 
    100 H100       31.6380   24.4981   -3.2216 H         1 UNK         0.0949 
    101 H101       34.3895   24.9663   -1.9404 H         1 UNK         0.0767 
    102 H102       34.0184   23.7644   -3.1784 H         1 UNK         0.0767 
    103 H103       33.9144   25.4762   -3.5548 H         1 UNK         0.0767 
    104 H104       32.8495   23.4154   -0.8169 H         1 UNK         0.3013 
    105 H105       27.2001   29.4790    4.7153 H         1 UNK         0.3121 
    106 H106       26.8272   31.2855    5.9014 H         1 UNK         0.0774 
    107 H107       24.6678   31.6475    7.0186 H         1 UNK         0.0815 
    108 H108       23.8423   30.6000    5.8763 H         1 UNK         0.0815 
    109 H109       25.0225   29.9298    7.0025 H         1 UNK         0.0815 
    110 H110       26.7113   31.4325    2.8999 H         1 UNK         0.2987 
    111 H111       25.4250   34.1304    2.6381 H         1 UNK         0.0949 
    112 H112       24.9899   33.4889    0.2583 H         1 UNK         0.0806 
    113 H113       25.5650   31.8607    0.5960 H         1 UNK         0.0806 
    114 H114       24.1192   32.4670    1.3925 H         1 UNK         0.0806 
    115 H115       28.2011   32.0222    1.5798 H         1 UNK         0.3010 
    116 H116       29.9061   34.3506    1.4497 H         1 UNK         0.0829 
    117 H117       28.8048   34.5736   -0.8001 H         1 UNK         0.0813 
    118 H118       30.4933   34.1338   -0.9699 H         1 UNK         0.0813 
    119 H119       29.2517   32.9148   -1.1930 H         1 UNK         0.0813 
    120 H120       32.0110   33.8274    1.5538 H         1 UNK         0.3038 
    121 H121       33.8712   32.7539    2.0047 H         1 UNK         0.0769 
    122 H122       32.8223   30.2561    0.5776 H         1 UNK         0.0811 
    123 H123       34.5014   30.6881    0.8698 H         1 UNK         0.0811 
    124 H124       33.5434   31.6284   -0.2530 H         1 UNK         0.0811 
    125 H125       34.3120   29.9404    2.7432 H         1 UNK         0.3204 
    126 H126       32.5987   29.3162    4.9678 H         1 UNK         0.0748 
    127 H127       34.4150   29.5552    6.7006 H         1 UNK         0.0771 
    128 H128       35.4680   30.3098    5.5098 H         1 UNK         0.0771 
    129 H129       33.9946   31.1216    6.0340 H         1 UNK         0.0771 
    130 H130       33.2475   27.2811    5.9208 H         1 UNK         0.2980 
    131 H131       34.3212   25.4452    3.9724 H         1 UNK         0.0545 
    132 H132       37.4176   26.2133    6.4256 H         1 UNK         0.3459 
    133 H133       36.0410   27.2827    6.3298 H         1 UNK         0.3459 
    134 H134       33.2480   24.9763    6.8013 H         1 UNK         0.0616 
    135 H135       33.7113   23.7039    5.6973 H         1 UNK         0.0616 
    136 H136       30.7818   23.1571    6.5002 H         1 UNK         0.0634 
    137 H137       31.7995   22.3990    5.2940 H         1 UNK         0.0634 
@<TRIPOS>BOND
     1    1    2 1    
     2    1   72 1    
     3    1   73 1    
     4    1   74 1    
     5    2    3 2    
     6    2    4 am   BACKBONE|DICT|INTERRES
     7    4    5 1    
     8    4   75 1    
     9    5    6 1    
    10    5   35 1    
    11    5   76 1    
    12    6    7 1    
    13    6   77 1    
    14    6   78 1    
    15    7    8 1    
    16    8    9 1    
    17    8   79 1    
    18    8   80 1    
    19    9   10 ar   
    20    9   14 ar   
    21   10   11 ar   
    22   10   81 1    
    23   11   12 ar   
    24   11   71 1    
    25   12   13 ar   
    26   12   82 1    
    27   13   14 ar   
    28   13   15 1    
    29   14   83 1    
    30   15   16 1    
    31   15   84 1    
    32   15   85 1    
    33   16   17 1    
    34   17   18 1    
    35   17   86 1    
    36   17   87 1    
    37   18   19 1    
    38   18   37 1    
    39   18   88 1    
    40   19   20 am   BACKBONE|DICT|INTERRES
    41   19   89 1    
    42   20   21 2    
    43   20   22 1    
    44   22   23 1    
    45   22   24 1    
    46   22   90 1    
    47   23   91 1    
    48   23   92 1    
    49   23   93 1    
    50   24   25 am   BACKBONE|DICT|INTERRES
    51   24   94 1    
    52   25   26 2    
    53   25   27 1    
    54   27   28 1    
    55   27   29 1    
    56   27   95 1    
    57   28   96 1    
    58   28   97 1    
    59   28   98 1    
    60   29   30 am   BACKBONE|DICT|INTERRES
    61   29   99 1    
    62   30   31 2    
    63   30   32 1    
    64   32   33 1    
    65   32   34 1    
    66   32  100 1    
    67   33  101 1    
    68   33  102 1    
    69   33  103 1    
    70   34   35 am   BACKBONE|DICT|INTERRES
    71   34  104 1    
    72   35   36 2    
    73   37   38 2    
    74   37   39 am   BACKBONE|DICT|INTERRES
    75   39   40 1    
    76   39  105 1    
    77   40   41 1    
    78   40   42 1    
    79   40  106 1    
    80   41  107 1    
    81   41  108 1    
    82   41  109 1    
    83   42   43 2    
    84   42   44 am   BACKBONE|DICT|INTERRES
    85   44   45 1    
    86   44  110 1    
    87   45   46 1    
    88   45   47 1    
    89   45  111 1    
    90   46  112 1    
    91   46  113 1    
    92   46  114 1    
    93   47   48 2    
    94   47   49 am   BACKBONE|DICT|INTERRES
    95   49   50 1    
    96   49  115 1    
    97   50   51 1    
    98   50   52 1    
    99   50  116 1    
   100   51  117 1    
   101   51  118 1    
   102   51  119 1    
   103   52   53 2    
   104   52   54 am   BACKBONE|DICT|INTERRES
   105   54   55 1    
   106   54  120 1    
   107   55   56 1    
   108   55   57 1    
   109   55  121 1    
   110   56  122 1    
   111   56  123 1    
   112   56  124 1    
   113   57   58 2    
   114   57   59 am   BACKBONE|DICT|INTERRES
   115   59   60 1    
   116   59  125 1    
   117   60   61 1    
   118   60   62 1    
   119   60  126 1    
   120   61  127 1    
   121   61  128 1    
   122   61  129 1    
   123   62   63 2    
   124   62   64 am   BACKBONE|DICT|INTERRES
   125   64   65 1    
   126   64  130 1    
   127   65   66 1    
   128   65   69 1    
   129   65  131 1    
   130   66   67 am   BACKBONE|DICT|INTERRES
   131   66   68 2    
   132   67  132 1    
   133   67  133 1    
   134   69   70 1    
   135   69  134 1    
   136   69  135 1    
   137   70   71 1    
   138   71  136 1    
   139   71  137 1    
@<TRIPOS>SUBSTRUCTURE
     1 UNK         1 GROUP             0       ****    0 ROOT    
