@<TRIPOS>MOLECULE
3R136
137   139    1
SMALL
USER_CHARGES


@<TRIPOS>ATOM
      1 CA         29.7212   26.6837    3.9969 C.3       0 UNK        -0.1979 
      2 C          28.9833   25.3571    3.9864 C.2       0 UNK         0.4864 
      3 O          28.3416   25.0149    4.9803 O.2       0 UNK        -0.5359 
      4 N          29.0689   24.6045    2.8813 N.am      1 UNK        -0.4318 
      5 CA         28.3997   23.3078    2.7212 C.3       1 UNK         0.0824 
      6 C6         29.0977   22.4154    1.6657 C.3       12 UNK        -0.0944 
      7 S7         29.1275   23.1099   -0.0245 S.3       12 UNK        -0.2672 
      8 C8         30.9093   23.1696   -0.3835 C.3       12 UNK         0.0333 
      9 C9         31.5331   24.4763    0.0808 C.ar      12 UNK        -0.0807 
     10 C10        32.1858   24.5619    1.3149 C.ar      12 UNK        -0.0894 
     11 C11        32.7944   25.7570    1.7142 C.ar      12 UNK        -0.0804 
     12 C12        32.7376   26.8695    0.8650 C.ar      12 UNK        -0.0824 
     13 C13        32.0778   26.7998   -0.3640 C.ar      12 UNK        -0.0762 
     14 C14        31.4833   25.5966   -0.7526 C.ar      12 UNK        -0.0782 
     15 C15        32.0462   28.0167   -1.2780 C.3       12 UNK         0.0230 
     16 S16        30.5290   29.0008   -1.0601 S.3       12 UNK        -0.2608 
     17 C17        29.3485   28.1211   -2.1473 C.3       12 UNK        -0.0989 
     18 CA         27.9409   27.7547   -1.5779 C.3       5 UNK         0.0716 
     19 N          27.4187   26.5118   -2.1395 N.am      5 UNK        -0.4135 
     20 C          27.0987   26.3079   -3.4229 C.2       4 UNK         0.5031 
     21 O          27.2339   27.1527   -4.3088 O.2       4 UNK        -0.5229 
     22 CA         26.5079   24.9338   -3.7750 C.3       4 UNK         0.0329 
     23 CB         27.5874   23.8398   -3.7337 C.3       4 UNK        -0.2001 
     24 N          25.4060   24.5776   -2.8812 N.am      4 UNK        -0.4303 
     25 C          24.1803   25.1152   -2.9202 C.2       3 UNK         0.5044 
     26 O          23.8136   25.9216   -3.7755 O.2       3 UNK        -0.5152 
     27 CA         23.1977   24.7052   -1.8068 C.3       3 UNK         0.0319 
     28 CB         22.7160   23.2501   -1.9770 C.3       3 UNK        -0.2001 
     29 N          23.7034   24.9659   -0.4501 N.am      3 UNK        -0.4354 
     30 C          24.7384   24.3903    0.1785 C.2       2 UNK         0.4964 
     31 O          25.4081   23.4742   -0.3042 O.2       2 UNK        -0.5047 
     32 CA         25.0986   24.9925    1.5466 C.3       2 UNK         0.0288 
     33 CB         24.0276   24.7006    2.6188 C.3       2 UNK        -0.2113 
     34 N          26.4458   24.6103    1.9819 N.am      2 UNK        -0.4145 
     35 C          26.8800   23.4362    2.4687 C.2       1 UNK         0.5006 
     36 O          26.1521   22.4772    2.7351 O.2       1 UNK        -0.5103 
     37 C          27.8293   27.6296   -0.0468 C.2       5 UNK         0.5055 
     38 O          27.9392   26.5228    0.4885 O.2       5 UNK        -0.5220 
     39 N          27.5718   28.7590    0.6228 N.am      6 UNK        -0.4450 
     40 CA         27.3102   28.8465    2.0611 C.3       6 UNK         0.0367 
     41 CB         25.8234   29.1844    2.2813 C.3       6 UNK        -0.1929 
     42 C          28.2402   29.8618    2.7500 C.2       6 UNK         0.5070 
     43 O          27.8713   30.4163    3.7863 O.2       6 UNK        -0.5237 
     44 N          29.4345   30.0946    2.1870 N.am      7 UNK        -0.4739 
     45 CA         30.4342   31.0572    2.6706 C.3       7 UNK         0.0276 
     46 CB         31.3977   31.3966    1.5178 C.3       7 UNK        -0.1927 
     47 C          31.1869   30.5832    3.9324 C.2       7 UNK         0.5013 
     48 O          32.4185   30.5900    3.9511 O.2       7 UNK        -0.5193 
     49 N          30.4423   30.2015    4.9794 N.am      8 UNK        -0.4253 
     50 CA         30.9377   29.6332    6.2415 C.3       8 UNK         0.0242 
     51 CB         29.7484   29.3540    7.1731 C.3       8 UNK        -0.2000 
     52 C          32.0047   30.4767    6.9646 C.2       8 UNK         0.4948 
     53 O          32.8808   29.9100    7.6192 O.2       8 UNK        -0.5275 
     54 N          31.9431   31.8052    6.7958 N.am      9 UNK        -0.4246 
     55 CA         32.9403   32.7609    7.2832 C.3       9 UNK         0.0261 
     56 CB         32.4105   34.1902    7.0839 C.3       9 UNK        -0.1959 
     57 C          34.3257   32.6044    6.6256 C.2       9 UNK         0.5033 
     58 O          35.3257   32.9295    7.2674 O.2       9 UNK        -0.5390 
     59 N          34.3707   32.1127    5.3783 N.am      10 UNK        -0.4215 
     60 CA         35.6082   31.7757    4.6729 C.3       10 UNK         0.0240 
     61 CB         35.4048   31.9351    3.1565 C.3       10 UNK        -0.1982 
     62 C          36.0724   30.3506    5.0120 C.2       10 UNK         0.4970 
     63 O          37.2798   30.1187    5.0861 O.2       10 UNK        -0.4916 
     64 N          35.1185   29.4294    5.2100 N.am      11 UNK        -0.4279 
     65 CA         35.3689   28.0318    5.5999 C.3       11 UNK         0.1003 
     66 C          36.0037   27.8972    7.0106 C.2       11 UNK         0.5709 
     67 N          35.5225   28.6399    8.0007 N.am      11 UNK        -0.7358 
     68 O          36.9337   27.1180    7.2044 O.2       11 UNK        -0.4999 
     69 C69        34.0992   27.1442    5.5057 C.3       12 UNK        -0.0954 
     70 S70        33.1765   27.3600    3.9524 S.3       12 UNK        -0.2268 
     71 C71        33.5403   25.8278    3.0441 C.3       12 UNK         0.0203 
     72 H72        30.1322   26.9366    3.0188 H         1 UNK         0.0888 
     73 H73        29.0545   27.4834    4.3133 H         1 UNK         0.0888 
     74 H74        30.5366   26.6337    4.7156 H         1 UNK         0.0888 
     75 H75        29.5772   24.9373    2.0717 H         1 UNK         0.3017 
     76 H76        28.4920   22.7804    3.6736 H         1 UNK         0.0873 
     77 H77        28.6105   21.4396    1.6182 H         1 UNK         0.0745 
     78 H78        30.1171   22.2097    1.9942 H         1 UNK         0.0745 
     79 H79        31.4177   22.3134    0.0622 H         1 UNK         0.0705 
     80 H80        31.0457   23.0664   -1.4611 H         1 UNK         0.0705 
     81 H81        32.2336   23.6925    1.9563 H         1 UNK         0.1334 
     82 H82        33.2129   27.7952    1.1598 H         1 UNK         0.1417 
     83 H83        30.9888   25.5192   -1.7097 H         1 UNK         0.1562 
     84 H84        32.1533   27.7147   -2.3210 H         1 UNK         0.0748 
     85 H85        32.9030   28.6585   -1.0667 H         1 UNK         0.0748 
     86 H86        29.8353   27.2198   -2.5154 H         1 UNK         0.0940 
     87 H87        29.2154   28.7340   -3.0402 H         1 UNK         0.0940 
     88 H88        27.2474   28.5459   -1.8712 H         1 UNK         0.0703 
     89 H89        27.2961   25.7737   -1.4570 H         1 UNK         0.3081 
     90 H90        26.1208   24.9863   -4.7950 H         1 UNK         0.0719 
     91 H91        27.9932   23.7053   -2.7310 H         1 UNK         0.0809 
     92 H92        27.1894   22.8799   -4.0629 H         1 UNK         0.0809 
     93 H93        28.4205   24.0880   -4.3927 H         1 UNK         0.0809 
     94 H94        25.6103   23.9533   -2.1038 H         1 UNK         0.2990 
     95 H95        22.3206   25.3452   -1.9166 H         1 UNK         0.0690 
     96 H96        21.9695   22.9911   -1.2261 H         1 UNK         0.0788 
     97 H97        23.5315   22.5308   -1.8989 H         1 UNK         0.0788 
     98 H98        22.2545   23.1076   -2.9550 H         1 UNK         0.0788 
     99 H99        23.2341   25.7225    0.0290 H         1 UNK         0.2993 
    100 H100       25.1463   26.0732    1.4097 H         1 UNK         0.0949 
    101 H101       23.0810   25.1807    2.3690 H         1 UNK         0.0767 
    102 H102       23.8274   23.6334    2.7172 H         1 UNK         0.0767 
    103 H103       24.3316   25.0774    3.5956 H         1 UNK         0.0767 
    104 H104       27.1660   25.2742    1.7073 H         1 UNK         0.3013 
    105 H105       27.5339   29.6311    0.1118 H         1 UNK         0.3121 
    106 H106       27.5022   27.8839    2.5365 H         1 UNK         0.0774 
    107 H107       25.1719   28.4677    1.7828 H         1 UNK         0.0815 
    108 H108       25.5771   30.1774    1.9035 H         1 UNK         0.0815 
    109 H109       25.5684   29.1657    3.3418 H         1 UNK         0.0815 
    110 H110       29.6828   29.5727    1.3567 H         1 UNK         0.2987 
    111 H111       29.9149   31.9780    2.9451 H         1 UNK         0.0949 
    112 H112       31.9802   30.5262    1.2127 H         1 UNK         0.0806 
    113 H113       30.8611   31.7661    0.6439 H         1 UNK         0.0806 
    114 H114       32.1052   32.1728    1.8127 H         1 UNK         0.0806 
    115 H115       29.4338   30.2528    4.8589 H         1 UNK         0.3010 
    116 H116       31.4027   28.6782    5.9961 H         1 UNK         0.0829 
    117 H117       29.0436   28.6568    6.7197 H         1 UNK         0.0813 
    118 H118       30.0829   28.9087    8.1114 H         1 UNK         0.0813 
    119 H119       29.2061   30.2676    7.4196 H         1 UNK         0.0813 
    120 H120       31.1836   32.1779    6.2449 H         1 UNK         0.3038 
    121 H121       33.0674   32.5889    8.3542 H         1 UNK         0.0769 
    122 H122       32.2418   34.4160    6.0302 H         1 UNK         0.0811 
    123 H123       33.1209   34.9256    7.4646 H         1 UNK         0.0811 
    124 H124       31.4719   34.3445    7.6166 H         1 UNK         0.0811 
    125 H125       33.5090   31.8111    4.9303 H         1 UNK         0.3204 
    126 H126       36.3965   32.4674    4.9779 H         1 UNK         0.0748 
    127 H127       35.0734   32.9425    2.9043 H         1 UNK         0.0771 
    128 H128       36.3376   31.7565    2.6202 H         1 UNK         0.0771 
    129 H129       34.6682   31.2323    2.7657 H         1 UNK         0.0771 
    130 H130       34.1499   29.6865    5.0730 H         1 UNK         0.2980 
    131 H131       36.0922   27.6350    4.8849 H         1 UNK         0.0545 
    132 H132       35.9267   28.5650    8.9200 H         1 UNK         0.3459 
    133 H133       34.7031   29.2214    7.8504 H         1 UNK         0.3459 
    134 H134       34.3626   26.0918    5.6256 H         1 UNK         0.0616 
    135 H135       33.4119   27.3760    6.3209 H         1 UNK         0.0616 
    136 H136       33.2767   24.9776    3.6750 H         1 UNK         0.0634 
    137 H137       34.6129   25.7673    2.8565 H         1 UNK         0.0634 
@<TRIPOS>BOND
     1    1    2 1    
     2    1   72 1    
     3    1   73 1    
     4    1   74 1    
     5    2    3 2    
     6    2    4 am   BACKBONE|DICT|INTERRES
     7    4    5 1    
     8    4   75 1    
     9    5    6 1    
    10    5   35 1    
    11    5   76 1    
    12    6    7 1    
    13    6   77 1    
    14    6   78 1    
    15    7    8 1    
    16    8    9 1    
    17    8   79 1    
    18    8   80 1    
    19    9   10 ar   
    20    9   14 ar   
    21   10   11 ar   
    22   10   81 1    
    23   11   12 ar   
    24   11   71 1    
    25   12   13 ar   
    26   12   82 1    
    27   13   14 ar   
    28   13   15 1    
    29   14   83 1    
    30   15   16 1    
    31   15   84 1    
    32   15   85 1    
    33   16   17 1    
    34   17   18 1    
    35   17   86 1    
    36   17   87 1    
    37   18   19 1    
    38   18   37 1    
    39   18   88 1    
    40   19   20 am   BACKBONE|DICT|INTERRES
    41   19   89 1    
    42   20   21 2    
    43   20   22 1    
    44   22   23 1    
    45   22   24 1    
    46   22   90 1    
    47   23   91 1    
    48   23   92 1    
    49   23   93 1    
    50   24   25 am   BACKBONE|DICT|INTERRES
    51   24   94 1    
    52   25   26 2    
    53   25   27 1    
    54   27   28 1    
    55   27   29 1    
    56   27   95 1    
    57   28   96 1    
    58   28   97 1    
    59   28   98 1    
    60   29   30 am   BACKBONE|DICT|INTERRES
    61   29   99 1    
    62   30   31 2    
    63   30   32 1    
    64   32   33 1    
    65   32   34 1    
    66   32  100 1    
    67   33  101 1    
    68   33  102 1    
    69   33  103 1    
    70   34   35 am   BACKBONE|DICT|INTERRES
    71   34  104 1    
    72   35   36 2    
    73   37   38 2    
    74   37   39 am   BACKBONE|DICT|INTERRES
    75   39   40 1    
    76   39  105 1    
    77   40   41 1    
    78   40   42 1    
    79   40  106 1    
    80   41  107 1    
    81   41  108 1    
    82   41  109 1    
    83   42   43 2    
    84   42   44 am   BACKBONE|DICT|INTERRES
    85   44   45 1    
    86   44  110 1    
    87   45   46 1    
    88   45   47 1    
    89   45  111 1    
    90   46  112 1    
    91   46  113 1    
    92   46  114 1    
    93   47   48 2    
    94   47   49 am   BACKBONE|DICT|INTERRES
    95   49   50 1    
    96   49  115 1    
    97   50   51 1    
    98   50   52 1    
    99   50  116 1    
   100   51  117 1    
   101   51  118 1    
   102   51  119 1    
   103   52   53 2    
   104   52   54 am   BACKBONE|DICT|INTERRES
   105   54   55 1    
   106   54  120 1    
   107   55   56 1    
   108   55   57 1    
   109   55  121 1    
   110   56  122 1    
   111   56  123 1    
   112   56  124 1    
   113   57   58 2    
   114   57   59 am   BACKBONE|DICT|INTERRES
   115   59   60 1    
   116   59  125 1    
   117   60   61 1    
   118   60   62 1    
   119   60  126 1    
   120   61  127 1    
   121   61  128 1    
   122   61  129 1    
   123   62   63 2    
   124   62   64 am   BACKBONE|DICT|INTERRES
   125   64   65 1    
   126   64  130 1    
   127   65   66 1    
   128   65   69 1    
   129   65  131 1    
   130   66   67 am   BACKBONE|DICT|INTERRES
   131   66   68 2    
   132   67  132 1    
   133   67  133 1    
   134   69   70 1    
   135   69  134 1    
   136   69  135 1    
   137   70   71 1    
   138   71  136 1    
   139   71  137 1    
@<TRIPOS>SUBSTRUCTURE
     1 UNK         1 GROUP             0       ****    0 ROOT    
