@<TRIPOS>MOLECULE
3R136
137   139    1
SMALL
USER_CHARGES


@<TRIPOS>ATOM
      1 CA         34.0094   21.9231   -2.0637 C.3       0 UNK        -0.1979 
      2 C          33.3195   23.2390   -1.7350 C.2       0 UNK         0.4864 
      3 O          33.5156   24.2256   -2.4464 O.2       0 UNK        -0.5359 
      4 N          32.5222   23.2606   -0.6593 N.am      1 UNK        -0.4318 
      5 CA         31.7427   24.4187   -0.2073 C.3       1 UNK         0.0824 
      6 C6         31.1877   24.2151    1.2250 C.3       12 UNK        -0.0944 
      7 S7         32.5182   23.8736    2.4274 S.3       12 UNK        -0.2672 
      8 C8         31.7330   22.6406    3.5137 C.3       12 UNK         0.0333 
      9 C9         30.8447   23.3130    4.5483 C.ar      12 UNK        -0.0807 
     10 C10        31.4323   24.0503    5.5778 C.ar      12 UNK        -0.0894 
     11 C11        30.6460   24.7165    6.5193 C.ar      12 UNK        -0.0804 
     12 C12        29.2546   24.5929    6.4579 C.ar      12 UNK        -0.0824 
     13 C13        28.6526   23.8263    5.4536 C.ar      12 UNK        -0.0762 
     14 C14        29.4523   23.2008    4.4903 C.ar      12 UNK        -0.0782 
     15 C15        27.1417   23.6408    5.4291 C.3       12 UNK         0.0230 
     16 S16        26.3305   24.6849    4.1794 S.3       12 UNK        -0.2608 
     17 C17        26.4738   26.3497    4.9142 C.3       12 UNK        -0.0989 
     18 CA         27.2682   27.3160    3.9980 C.3       5 UNK         0.0716 
     19 N          26.6711   27.5051    2.6642 N.am      5 UNK        -0.4135 
     20 C          25.4543   27.9830    2.3616 C.2       4 UNK         0.5031 
     21 O          24.6370   28.3702    3.1988 O.2       4 UNK        -0.5229 
     22 CA         25.0892   28.0818    0.8720 C.3       4 UNK         0.0329 
     23 CB         25.4417   29.4761    0.3302 C.3       4 UNK        -0.2001 
     24 N          25.7256   27.0692    0.0275 N.am      4 UNK        -0.4303 
     25 C          25.4658   25.7572    0.0475 C.2       3 UNK         0.5044 
     26 O          24.6766   25.2356    0.8352 O.2       3 UNK        -0.5152 
     27 CA         26.1742   24.8626   -0.9921 C.3       3 UNK         0.0319 
     28 CB         25.2600   24.6366   -2.2118 C.3       3 UNK        -0.2001 
     29 N          27.5195   25.2763   -1.4295 N.am      3 UNK        -0.4354 
     30 C          27.9154   26.3854   -2.0709 C.2       2 UNK         0.4964 
     31 O          27.1631   27.3292   -2.3179 O.2       2 UNK        -0.5047 
     32 CA         29.3950   26.4580   -2.5101 C.3       2 UNK         0.0288 
     33 CB         29.8012   27.8763   -2.9508 C.3       2 UNK        -0.2113 
     34 N          30.3564   25.9881   -1.5038 N.am      2 UNK        -0.4145 
     35 C          30.5970   24.7069   -1.1969 C.2       1 UNK         0.5006 
     36 O          29.9346   23.7667   -1.6455 O.2       1 UNK        -0.5103 
     37 C          27.5749   28.6493    4.7143 C.2       5 UNK         0.5055 
     38 O          28.7108   28.8650    5.1337 O.2       5 UNK        -0.5220 
     39 N          26.5814   29.5389    4.8138 N.am      6 UNK        -0.4450 
     40 CA         26.7093   30.9088    5.3079 C.3       6 UNK         0.0367 
     41 CB         25.3693   31.3385    5.9334 C.3       6 UNK        -0.1929 
     42 C          27.1556   31.8345    4.1614 C.2       6 UNK         0.5070 
     43 O          26.3954   32.7050    3.7337 O.2       6 UNK        -0.5237 
     44 N          28.3706   31.6033    3.6564 N.am      7 UNK        -0.4739 
     45 CA         28.9869   32.3281    2.5488 C.3       7 UNK         0.0276 
     46 CB         28.5318   31.7097    1.2133 C.3       7 UNK        -0.1927 
     47 C          30.5113   32.2631    2.6916 C.2       7 UNK         0.5013 
     48 O          31.0214   31.4152    3.4267 O.2       7 UNK        -0.5193 
     49 N          31.2135   33.1430    1.9647 N.am      8 UNK        -0.4253 
     50 CA         32.6797   33.1961    1.9193 C.3       8 UNK         0.0242 
     51 CB         33.1228   34.5042    1.2440 C.3       8 UNK        -0.2000 
     52 C          33.3136   31.9839    1.2124 C.2       8 UNK         0.4948 
     53 O          34.4322   31.6016    1.5550 O.2       8 UNK        -0.5275 
     54 N          32.5855   31.3838    0.2609 N.am      9 UNK        -0.4246 
     55 CA         32.9748   30.1785   -0.4759 C.3       9 UNK         0.0261 
     56 CB         32.4210   30.2727   -1.9094 C.3       9 UNK        -0.1959 
     57 C          32.5276   28.8952    0.2537 C.2       9 UNK         0.5033 
     58 O          32.0022   27.9747   -0.3764 O.2       9 UNK        -0.5390 
     59 N          32.7302   28.8547    1.5729 N.am      10 UNK        -0.4215 
     60 CA         32.4098   27.7416    2.4566 C.3       10 UNK         0.0240 
     61 CB         30.8978   27.7106    2.7468 C.3       10 UNK        -0.1982 
     62 C          33.2187   27.8941    3.7495 C.2       10 UNK         0.4970 
     63 O          33.7055   28.9895    4.0416 O.2       10 UNK        -0.4916 
     64 N          33.3410   26.7883    4.4925 N.am      11 UNK        -0.4279 
     65 CA         34.0137   26.6940    5.8025 C.3       11 UNK         0.1003 
     66 C          35.5549   26.9336    5.7733 C.2       11 UNK         0.5709 
     67 N          36.2150   26.8423    4.6247 N.am      11 UNK        -0.7358 
     68 O          36.1722   27.1690    6.8097 O.2       11 UNK        -0.4999 
     69 C69        33.3001   27.5016    6.9293 C.3       12 UNK        -0.0954 
     70 S70        31.4859   27.2902    7.0159 S.3       12 UNK        -0.2268 
     71 C71        31.2970   25.5745    7.5945 C.3       12 UNK         0.0203 
     72 H72        33.7597   21.1414   -1.3463 H         1 UNK         0.0888 
     73 H73        33.7120   21.5812   -3.0546 H         1 UNK         0.0888 
     74 H74        35.0910   22.0548   -2.0582 H         1 UNK         0.0888 
     75 H75        32.3960   22.4184   -0.1175 H         1 UNK         0.3017 
     76 H76        32.4119   25.2820   -0.1968 H         1 UNK         0.0873 
     77 H77        30.6464   25.1008    1.5595 H         1 UNK         0.0745 
     78 H78        30.4655   23.3965    1.2394 H         1 UNK         0.0745 
     79 H79        32.5147   22.0791    4.0275 H         1 UNK         0.0705 
     80 H80        31.1763   21.9125    2.9219 H         1 UNK         0.0705 
     81 H81        32.5078   24.1101    5.6291 H         1 UNK         0.1334 
     82 H82        28.6426   25.0907    7.1975 H         1 UNK         0.1417 
     83 H83        28.9887   22.6193    3.7049 H         1 UNK         0.1562 
     84 H84        26.7085   23.8430    6.4100 H         1 UNK         0.0748 
     85 H85        26.9127   22.5966    5.2107 H         1 UNK         0.0748 
     86 H86        26.9522   26.2742    5.8917 H         1 UNK         0.0940 
     87 H87        25.4687   26.7276    5.1075 H         1 UNK         0.0940 
     88 H88        28.2368   26.8490    3.8131 H         1 UNK         0.0703 
     89 H89        27.2578   27.2318    1.8902 H         1 UNK         0.3081 
     90 H90        24.0081   27.9484    0.7945 H         1 UNK         0.0719 
     91 H91        25.0042   30.2625    0.9474 H         1 UNK         0.0809 
     92 H92        26.5198   29.6365    0.3088 H         1 UNK         0.0809 
     93 H93        25.0648   29.6132   -0.6835 H         1 UNK         0.0809 
     94 H94        26.3271   27.3999   -0.7244 H         1 UNK         0.2990 
     95 H95        26.3164   23.8953   -0.5076 H         1 UNK         0.0690 
     96 H96        25.0757   25.5625   -2.7579 H         1 UNK         0.0788 
     97 H97        24.2899   24.2423   -1.9059 H         1 UNK         0.0788 
     98 H98        25.6958   23.9185   -2.9064 H         1 UNK         0.0788 
     99 H99        28.2414   24.5714   -1.3034 H         1 UNK         0.2993 
    100 H100       29.4835   25.8086   -3.3838 H         1 UNK         0.0949 
    101 H101       29.7001   28.5890   -2.1317 H         1 UNK         0.0767 
    102 H102       30.8348   27.9032   -3.2960 H         1 UNK         0.0767 
    103 H103       29.1786   28.2301   -3.7737 H         1 UNK         0.0767 
    104 H104       30.9371   26.7098   -1.0730 H         1 UNK         0.3013 
    105 H105       25.6955   29.2874    4.3782 H         1 UNK         0.3121 
    106 H106       27.4732   30.9508    6.0875 H         1 UNK         0.0774 
    107 H107       25.4269   32.3578    6.3173 H         1 UNK         0.0815 
    108 H108       24.5551   31.3069    5.2081 H         1 UNK         0.0815 
    109 H109       25.0980   30.6930    6.7689 H         1 UNK         0.0815 
    110 H110       28.9594   30.8910    4.0790 H         1 UNK         0.2987 
    111 H111       28.6862   33.3775    2.5914 H         1 UNK         0.0949 
    112 H112       28.9788   32.2245    0.3624 H         1 UNK         0.0806 
    113 H113       28.8087   30.6567    1.1433 H         1 UNK         0.0806 
    114 H114       27.4506   31.7815    1.0959 H         1 UNK         0.0806 
    115 H115       30.7175   33.8142    1.3951 H         1 UNK         0.3010 
    116 H116       33.0479   33.2013    2.9478 H         1 UNK         0.0829 
    117 H117       32.7507   35.3758    1.7829 H         1 UNK         0.0813 
    118 H118       34.2109   34.5812    1.2207 H         1 UNK         0.0813 
    119 H119       32.7702   34.5688    0.2138 H         1 UNK         0.0813 
    120 H120       31.6651   31.7495    0.0676 H         1 UNK         0.3038 
    121 H121       34.0636   30.1338   -0.5480 H         1 UNK         0.0769 
    122 H122       32.8033   31.1546   -2.4234 H         1 UNK         0.0811 
    123 H123       32.7137   29.4049   -2.5020 H         1 UNK         0.0811 
    124 H124       31.3325   30.3268   -1.9180 H         1 UNK         0.0811 
    125 H125       33.1943   29.6310    2.0344 H         1 UNK         0.3204 
    126 H126       32.7127   26.8134    1.9696 H         1 UNK         0.0748 
    127 H127       30.3153   27.5610    1.8381 H         1 UNK         0.0771 
    128 H128       30.6464   26.9018    3.4345 H         1 UNK         0.0771 
    129 H129       30.5668   28.6433    3.2046 H         1 UNK         0.0771 
    130 H130       32.9174   25.9349    4.1572 H         1 UNK         0.2980 
    131 H131       33.9430   25.6467    6.0853 H         1 UNK         0.0545 
    132 H132       35.7270   26.6375    3.7682 H         1 UNK         0.3459 
    133 H133       37.2123   26.9870    4.6169 H         1 UNK         0.3459 
    134 H134       33.7132   27.2405    7.9051 H         1 UNK         0.0616 
    135 H135       33.4937   28.5676    6.7991 H         1 UNK         0.0616 
    136 H136       30.6832   25.5733    8.4963 H         1 UNK         0.0634 
    137 H137       32.2628   25.1578    7.8835 H         1 UNK         0.0634 
@<TRIPOS>BOND
     1    1    2 1    
     2    1   72 1    
     3    1   73 1    
     4    1   74 1    
     5    2    3 2    
     6    2    4 am   BACKBONE|DICT|INTERRES
     7    4    5 1    
     8    4   75 1    
     9    5    6 1    
    10    5   35 1    
    11    5   76 1    
    12    6    7 1    
    13    6   77 1    
    14    6   78 1    
    15    7    8 1    
    16    8    9 1    
    17    8   79 1    
    18    8   80 1    
    19    9   10 ar   
    20    9   14 ar   
    21   10   11 ar   
    22   10   81 1    
    23   11   12 ar   
    24   11   71 1    
    25   12   13 ar   
    26   12   82 1    
    27   13   14 ar   
    28   13   15 1    
    29   14   83 1    
    30   15   16 1    
    31   15   84 1    
    32   15   85 1    
    33   16   17 1    
    34   17   18 1    
    35   17   86 1    
    36   17   87 1    
    37   18   19 1    
    38   18   37 1    
    39   18   88 1    
    40   19   20 am   BACKBONE|DICT|INTERRES
    41   19   89 1    
    42   20   21 2    
    43   20   22 1    
    44   22   23 1    
    45   22   24 1    
    46   22   90 1    
    47   23   91 1    
    48   23   92 1    
    49   23   93 1    
    50   24   25 am   BACKBONE|DICT|INTERRES
    51   24   94 1    
    52   25   26 2    
    53   25   27 1    
    54   27   28 1    
    55   27   29 1    
    56   27   95 1    
    57   28   96 1    
    58   28   97 1    
    59   28   98 1    
    60   29   30 am   BACKBONE|DICT|INTERRES
    61   29   99 1    
    62   30   31 2    
    63   30   32 1    
    64   32   33 1    
    65   32   34 1    
    66   32  100 1    
    67   33  101 1    
    68   33  102 1    
    69   33  103 1    
    70   34   35 am   BACKBONE|DICT|INTERRES
    71   34  104 1    
    72   35   36 2    
    73   37   38 2    
    74   37   39 am   BACKBONE|DICT|INTERRES
    75   39   40 1    
    76   39  105 1    
    77   40   41 1    
    78   40   42 1    
    79   40  106 1    
    80   41  107 1    
    81   41  108 1    
    82   41  109 1    
    83   42   43 2    
    84   42   44 am   BACKBONE|DICT|INTERRES
    85   44   45 1    
    86   44  110 1    
    87   45   46 1    
    88   45   47 1    
    89   45  111 1    
    90   46  112 1    
    91   46  113 1    
    92   46  114 1    
    93   47   48 2    
    94   47   49 am   BACKBONE|DICT|INTERRES
    95   49   50 1    
    96   49  115 1    
    97   50   51 1    
    98   50   52 1    
    99   50  116 1    
   100   51  117 1    
   101   51  118 1    
   102   51  119 1    
   103   52   53 2    
   104   52   54 am   BACKBONE|DICT|INTERRES
   105   54   55 1    
   106   54  120 1    
   107   55   56 1    
   108   55   57 1    
   109   55  121 1    
   110   56  122 1    
   111   56  123 1    
   112   56  124 1    
   113   57   58 2    
   114   57   59 am   BACKBONE|DICT|INTERRES
   115   59   60 1    
   116   59  125 1    
   117   60   61 1    
   118   60   62 1    
   119   60  126 1    
   120   61  127 1    
   121   61  128 1    
   122   61  129 1    
   123   62   63 2    
   124   62   64 am   BACKBONE|DICT|INTERRES
   125   64   65 1    
   126   64  130 1    
   127   65   66 1    
   128   65   69 1    
   129   65  131 1    
   130   66   67 am   BACKBONE|DICT|INTERRES
   131   66   68 2    
   132   67  132 1    
   133   67  133 1    
   134   69   70 1    
   135   69  134 1    
   136   69  135 1    
   137   70   71 1    
   138   71  136 1    
   139   71  137 1    
@<TRIPOS>SUBSTRUCTURE
     1 UNK         1 GROUP             0       ****    0 ROOT    
