@<TRIPOS>MOLECULE
3R136
137   139    1
SMALL
USER_CHARGES


@<TRIPOS>ATOM
      1 CA         27.3575   18.8749    1.4636 C.3       0 UNK        -0.1979 
      2 C          27.9936   19.5425    0.2532 C.2       0 UNK         0.4864 
      3 O          27.6823   19.1768   -0.8817 O.2       0 UNK        -0.5359 
      4 N          28.8890   20.5099    0.4873 N.am      1 UNK        -0.4318 
      5 CA         29.5524   21.3218   -0.5372 C.3       1 UNK         0.0824 
      6 C6         30.8034   22.0746    0.0033 C.3       12 UNK        -0.0944 
      7 S7         30.7026   22.6331    1.7416 S.3       12 UNK        -0.2672 
      8 C8         30.2711   24.3872    1.5559 C.3       12 UNK         0.0333 
      9 C9         30.1020   25.0492    2.9158 C.ar      12 UNK        -0.0807 
     10 C10        31.0146   26.0118    3.3632 C.ar      12 UNK        -0.0894 
     11 C11        30.8485   26.6153    4.6146 C.ar      12 UNK        -0.0804 
     12 C12        29.7574   26.2609    5.4132 C.ar      12 UNK        -0.0824 
     13 C13        28.8387   25.3031    4.9767 C.ar      12 UNK        -0.0762 
     14 C14        29.0229   24.6939    3.7313 C.ar      12 UNK        -0.0782 
     15 C15        27.6401   24.9422    5.8439 C.3       12 UNK         0.0230 
     16 S16        26.0574   25.2138    4.9824 S.3       12 UNK        -0.2608 
     17 C17        26.0641   27.0214    4.6963 C.3       12 UNK        -0.0989 
     18 CA         26.7832   27.4643    3.3859 C.3       5 UNK         0.0716 
     19 N          26.4579   26.6504    2.2103 N.am      5 UNK        -0.4135 
     20 C          25.2546   26.4688    1.6528 C.2       4 UNK         0.5031 
     21 O          24.2160   26.9845    2.0700 O.2       4 UNK        -0.5229 
     22 CA         25.2284   25.5726    0.3962 C.3       4 UNK         0.0329 
     23 CB         23.9819   25.8230   -0.4783 C.3       4 UNK        -0.2001 
     24 N          26.4450   25.6545   -0.4291 N.am      4 UNK        -0.4303 
     25 C          26.9831   26.7658   -0.9632 C.2       3 UNK         0.5044 
     26 O          26.5912   27.9036   -0.7028 O.2       3 UNK        -0.5152 
     27 CA         28.1789   26.6048   -1.9227 C.3       3 UNK         0.0319 
     28 CB         29.4670   27.1156   -1.2614 C.3       3 UNK        -0.2001 
     29 N          28.3872   25.2349   -2.3977 N.am      3 UNK        -0.4354 
     30 C          27.5613   24.5820   -3.2276 C.2       2 UNK         0.4964 
     31 O          26.5738   25.0994   -3.7507 O.2       2 UNK        -0.5047 
     32 CA         27.8645   23.1007   -3.5177 C.3       2 UNK         0.0288 
     33 CB         28.4343   22.9420   -4.9376 C.3       2 UNK        -0.2113 
     34 N          28.7625   22.4264   -2.5699 N.am      2 UNK        -0.4145 
     35 C          28.5554   22.2580   -1.2545 C.2       1 UNK         0.5006 
     36 O          27.6468   22.8068   -0.6227 O.2       1 UNK        -0.5103 
     37 C          26.6770   28.9877    3.1441 C.2       5 UNK         0.5055 
     38 O          26.7691   29.7475    4.1101 O.2       5 UNK        -0.5220 
     39 N          26.5231   29.4299    1.8844 N.am      6 UNK        -0.4450 
     40 CA         26.5044   30.8500    1.5205 C.3       6 UNK         0.0367 
     41 CB         25.8413   31.0290    0.1458 C.3       6 UNK        -0.1929 
     42 C          27.9133   31.4643    1.5242 C.2       6 UNK         0.5070 
     43 O          28.0728   32.6203    1.9178 O.2       6 UNK        -0.5237 
     44 N          28.9194   30.6793    1.1137 N.am      7 UNK        -0.4739 
     45 CA         30.3299   31.0737    1.0644 C.3       7 UNK         0.0276 
     46 CB         31.0599   30.2320    0.0013 C.3       7 UNK        -0.1927 
     47 C          30.9996   30.9701    2.4462 C.2       7 UNK         0.5013 
     48 O          31.9919   30.2565    2.5978 O.2       7 UNK        -0.5193 
     49 N          30.4634   31.7003    3.4339 N.am      8 UNK        -0.4253 
     50 CA         30.9532   31.7465    4.8187 C.3       8 UNK         0.0242 
     51 CB         30.0632   32.6866    5.6453 C.3       8 UNK        -0.2000 
     52 C          32.4341   32.1500    4.9457 C.2       8 UNK         0.4948 
     53 O          33.1240   31.6551    5.8372 O.2       8 UNK        -0.5275 
     54 N          32.9117   32.9833    4.0105 N.am      9 UNK        -0.4246 
     55 CA         34.3102   33.3921    3.8630 C.3       9 UNK         0.0261 
     56 CB         34.4033   34.4691    2.7697 C.3       9 UNK        -0.1959 
     57 C          35.2887   32.2382    3.5636 C.2       9 UNK         0.5033 
     58 O          36.4815   32.3989    3.8256 O.2       9 UNK        -0.5390 
     59 N          34.7953   31.1036    3.0396 N.am      10 UNK        -0.4215 
     60 CA         35.5931   29.8896    2.8396 C.3       10 UNK         0.0240 
     61 CB         34.8811   28.9530    1.8493 C.3       10 UNK        -0.1982 
     62 C          35.8828   29.1555    4.1610 C.2       10 UNK         0.4970 
     63 O          36.9137   28.4887    4.2595 O.2       10 UNK        -0.4916 
     64 N          34.9814   29.2922    5.1415 N.am      11 UNK        -0.4279 
     65 CA         35.1341   28.7558    6.4990 C.3       11 UNK         0.1003 
     66 C          35.8159   29.7799    7.4433 C.2       11 UNK         0.5709 
     67 N          35.4552   31.0562    7.3840 N.am      11 UNK        -0.7358 
     68 O          36.6849   29.4139    8.2310 O.2       11 UNK        -0.4999 
     69 C69        33.7776   28.2882    7.0814 C.3       12 UNK        -0.0954 
     70 S70        33.0906   26.8563    6.1859 S.3       12 UNK        -0.2268 
     71 C71        31.8447   27.6451    5.1220 C.3       12 UNK         0.0203 
     72 H72        27.7317   19.2884    2.4001 H         1 UNK         0.0888 
     73 H73        26.2766   19.0105    1.4414 H         1 UNK         0.0888 
     74 H74        27.5681   17.8058    1.4568 H         1 UNK         0.0888 
     75 H75        29.0948   20.7859    1.4376 H         1 UNK         0.3017 
     76 H76        29.9117   20.6184   -1.2923 H         1 UNK         0.0873 
     77 H77        31.0848   22.9107   -0.6401 H         1 UNK         0.0745 
     78 H78        31.6551   21.3938   -0.0400 H         1 UNK         0.0745 
     79 H79        31.0456   24.8888    0.9737 H         1 UNK         0.0705 
     80 H80        29.3417   24.4733    0.9915 H         1 UNK         0.0705 
     81 H81        31.8582   26.2867    2.7447 H         1 UNK         0.1334 
     82 H82        29.6282   26.7318    6.3783 H         1 UNK         0.1417 
     83 H83        28.3166   23.9484    3.3909 H         1 UNK         0.1562 
     84 H84        27.6403   25.5118    6.7746 H         1 UNK         0.0748 
     85 H85        27.7125   23.8910    6.1258 H         1 UNK         0.0748 
     86 H86        26.5159   27.5092    5.5621 H         1 UNK         0.0940 
     87 H87        25.0237   27.3512    4.6796 H         1 UNK         0.0940 
     88 H88        27.8506   27.3125    3.5336 H         1 UNK         0.0703 
     89 H89        27.2406   26.1800    1.7819 H         1 UNK         0.3081 
     90 H90        25.1773   24.5454    0.7605 H         1 UNK         0.0719 
     91 H91        23.9695   25.1657   -1.3478 H         1 UNK         0.0809 
     92 H92        23.9422   26.8525   -0.8361 H         1 UNK         0.0809 
     93 H93        23.0641   25.6359    0.0807 H         1 UNK         0.0809 
     94 H94        26.8714   24.7618   -0.6583 H         1 UNK         0.2990 
     95 H95        27.9747   27.2325   -2.7927 H         1 UNK         0.0690 
     96 H96        30.3159   27.0632   -1.9433 H         1 UNK         0.0788 
     97 H97        29.7177   26.5537   -0.3624 H         1 UNK         0.0788 
     98 H98        29.3512   28.1594   -0.9722 H         1 UNK         0.0788 
     99 H99        29.1827   24.7366   -2.0281 H         1 UNK         0.2993 
    100 H100       26.9071   22.5768   -3.4753 H         1 UNK         0.0949 
    101 H101       27.7767   23.3997   -5.6784 H         1 UNK         0.0767 
    102 H102       29.4126   23.4148   -5.0344 H         1 UNK         0.0767 
    103 H103       28.5389   21.8914   -5.2098 H         1 UNK         0.0767 
    104 H104       29.5533   21.9558   -2.9867 H         1 UNK         0.3013 
    105 H105       26.4477   28.7635    1.1212 H         1 UNK         0.3121 
    106 H106       25.9022   31.3893    2.2551 H         1 UNK         0.0774 
    107 H107       25.7435   32.0867   -0.1025 H         1 UNK         0.0815 
    108 H108       26.4225   30.5624   -0.6503 H         1 UNK         0.0815 
    109 H109       24.8407   30.5969    0.1275 H         1 UNK         0.0815 
    110 H110       28.7021   29.7328    0.8397 H         1 UNK         0.2987 
    111 H111       30.3932   32.1192    0.7544 H         1 UNK         0.0949 
    112 H112       31.0921   29.1765    0.2736 H         1 UNK         0.0806 
    113 H113       30.5839   30.3205   -0.9753 H         1 UNK         0.0806 
    114 H114       32.0927   30.5641   -0.1141 H         1 UNK         0.0806 
    115 H115       29.6345   32.2432    3.2135 H         1 UNK         0.3010 
    116 H116       30.8578   30.7397    5.2283 H         1 UNK         0.0829 
    117 H117       29.0258   32.3507    5.6460 H         1 UNK         0.0813 
    118 H118       30.3917   32.7213    6.6852 H         1 UNK         0.0813 
    119 H119       30.0858   33.7071    5.2609 H         1 UNK         0.0813 
    120 H120       32.2644   33.3337    3.3196 H         1 UNK         0.3038 
    121 H121       34.6213   33.8373    4.8104 H         1 UNK         0.0769 
    122 H122       35.4293   34.8223    2.6557 H         1 UNK         0.0811 
    123 H123       33.7906   35.3375    3.0128 H         1 UNK         0.0811 
    124 H124       34.0806   34.0888    1.7996 H         1 UNK         0.0811 
    125 H125       33.7985   31.0226    2.8571 H         1 UNK         0.3204 
    126 H126       36.5512   30.1767    2.4008 H         1 UNK         0.0748 
    127 H127       35.5137   28.1000    1.6005 H         1 UNK         0.0771 
    128 H128       33.9529   28.5556    2.2610 H         1 UNK         0.0771 
    129 H129       34.6428   29.4642    0.9164 H         1 UNK         0.0771 
    130 H130       34.1949   29.9115    5.0023 H         1 UNK         0.2980 
    131 H131       35.7872   27.8814    6.4632 H         1 UNK         0.0545 
    132 H132       34.6840   31.3439    6.7868 H         1 UNK         0.3459 
    133 H133       35.8998   31.7251    7.9914 H         1 UNK         0.3459 
    134 H134       33.8996   27.9794    8.1213 H         1 UNK         0.0616 
    135 H135       33.0553   29.1063    7.0941 H         1 UNK         0.0616 
    136 H136       32.3413   28.1465    4.2905 H         1 UNK         0.0634 
    137 H137       31.3143   28.4163    5.6814 H         1 UNK         0.0634 
@<TRIPOS>BOND
     1    1    2 1    
     2    1   72 1    
     3    1   73 1    
     4    1   74 1    
     5    2    3 2    
     6    2    4 am   BACKBONE|DICT|INTERRES
     7    4    5 1    
     8    4   75 1    
     9    5    6 1    
    10    5   35 1    
    11    5   76 1    
    12    6    7 1    
    13    6   77 1    
    14    6   78 1    
    15    7    8 1    
    16    8    9 1    
    17    8   79 1    
    18    8   80 1    
    19    9   10 ar   
    20    9   14 ar   
    21   10   11 ar   
    22   10   81 1    
    23   11   12 ar   
    24   11   71 1    
    25   12   13 ar   
    26   12   82 1    
    27   13   14 ar   
    28   13   15 1    
    29   14   83 1    
    30   15   16 1    
    31   15   84 1    
    32   15   85 1    
    33   16   17 1    
    34   17   18 1    
    35   17   86 1    
    36   17   87 1    
    37   18   19 1    
    38   18   37 1    
    39   18   88 1    
    40   19   20 am   BACKBONE|DICT|INTERRES
    41   19   89 1    
    42   20   21 2    
    43   20   22 1    
    44   22   23 1    
    45   22   24 1    
    46   22   90 1    
    47   23   91 1    
    48   23   92 1    
    49   23   93 1    
    50   24   25 am   BACKBONE|DICT|INTERRES
    51   24   94 1    
    52   25   26 2    
    53   25   27 1    
    54   27   28 1    
    55   27   29 1    
    56   27   95 1    
    57   28   96 1    
    58   28   97 1    
    59   28   98 1    
    60   29   30 am   BACKBONE|DICT|INTERRES
    61   29   99 1    
    62   30   31 2    
    63   30   32 1    
    64   32   33 1    
    65   32   34 1    
    66   32  100 1    
    67   33  101 1    
    68   33  102 1    
    69   33  103 1    
    70   34   35 am   BACKBONE|DICT|INTERRES
    71   34  104 1    
    72   35   36 2    
    73   37   38 2    
    74   37   39 am   BACKBONE|DICT|INTERRES
    75   39   40 1    
    76   39  105 1    
    77   40   41 1    
    78   40   42 1    
    79   40  106 1    
    80   41  107 1    
    81   41  108 1    
    82   41  109 1    
    83   42   43 2    
    84   42   44 am   BACKBONE|DICT|INTERRES
    85   44   45 1    
    86   44  110 1    
    87   45   46 1    
    88   45   47 1    
    89   45  111 1    
    90   46  112 1    
    91   46  113 1    
    92   46  114 1    
    93   47   48 2    
    94   47   49 am   BACKBONE|DICT|INTERRES
    95   49   50 1    
    96   49  115 1    
    97   50   51 1    
    98   50   52 1    
    99   50  116 1    
   100   51  117 1    
   101   51  118 1    
   102   51  119 1    
   103   52   53 2    
   104   52   54 am   BACKBONE|DICT|INTERRES
   105   54   55 1    
   106   54  120 1    
   107   55   56 1    
   108   55   57 1    
   109   55  121 1    
   110   56  122 1    
   111   56  123 1    
   112   56  124 1    
   113   57   58 2    
   114   57   59 am   BACKBONE|DICT|INTERRES
   115   59   60 1    
   116   59  125 1    
   117   60   61 1    
   118   60   62 1    
   119   60  126 1    
   120   61  127 1    
   121   61  128 1    
   122   61  129 1    
   123   62   63 2    
   124   62   64 am   BACKBONE|DICT|INTERRES
   125   64   65 1    
   126   64  130 1    
   127   65   66 1    
   128   65   69 1    
   129   65  131 1    
   130   66   67 am   BACKBONE|DICT|INTERRES
   131   66   68 2    
   132   67  132 1    
   133   67  133 1    
   134   69   70 1    
   135   69  134 1    
   136   69  135 1    
   137   70   71 1    
   138   71  136 1    
   139   71  137 1    
@<TRIPOS>SUBSTRUCTURE
     1 UNK         1 GROUP             0       ****    0 ROOT    
