@<TRIPOS>MOLECULE
3R136
137   139    1
SMALL
USER_CHARGES


@<TRIPOS>ATOM
      1 CA         35.4649   21.4588    0.7475 C.3       0 UNK        -0.1979 
      2 C          34.5271   22.3937    1.4982 C.2       0 UNK         0.4864 
      3 O          34.8180   22.7575    2.6383 O.2       0 UNK        -0.5359 
      4 N          33.4153   22.7774    0.8616 N.am      1 UNK        -0.4318 
      5 CA         32.4151   23.7216    1.3631 C.3       1 UNK         0.0824 
      6 C6         31.1580   23.0050    1.9265 C.3       12 UNK        -0.0944 
      7 S7         31.4553   22.3251    3.5893 S.3       12 UNK        -0.2672 
      8 C8         29.7511   22.0058    4.1612 C.3       12 UNK         0.0333 
      9 C9         28.8809   23.2469    4.3767 C.ar      12 UNK        -0.0807 
     10 C10        29.4209   24.4941    4.7221 C.ar      12 UNK        -0.0894 
     11 C11        28.5881   25.5989    4.9335 C.ar      12 UNK        -0.0804 
     12 C12        27.2028   25.4394    4.8427 C.ar      12 UNK        -0.0824 
     13 C13        26.6465   24.2043    4.5043 C.ar      12 UNK        -0.0762 
     14 C14        27.4920   23.1167    4.2649 C.ar      12 UNK        -0.0782 
     15 C15        25.1342   24.0319    4.4350 C.3       12 UNK         0.0230 
     16 S16        24.4255   24.7197    2.9031 S.3       12 UNK        -0.2608 
     17 C17        24.1707   26.4770    3.3401 C.3       12 UNK        -0.0989 
     18 CA         25.1208   27.4318    2.5699 C.3       5 UNK         0.0716 
     19 N          24.9452   27.3066    1.1160 N.am      5 UNK        -0.4135 
     20 C          25.8430   27.6583    0.1893 C.2       4 UNK         0.5031 
     21 O          26.9160   28.2114    0.4504 O.2       4 UNK        -0.5229 
     22 CA         25.4776   27.3846   -1.2719 C.3       4 UNK         0.0329 
     23 CB         24.6528   28.5406   -1.8623 C.3       4 UNK        -0.2001 
     24 N          26.7316   27.2540   -2.0005 N.am      4 UNK        -0.4303 
     25 C          26.9932   26.3837   -2.9786 C.2       3 UNK         0.5044 
     26 O          26.1414   25.6690   -3.5087 O.2       3 UNK        -0.5152 
     27 CA         28.4607   26.2805   -3.4394 C.3       3 UNK         0.0319 
     28 CB         28.6734   27.0833   -4.7333 C.3       3 UNK        -0.2001 
     29 N          29.4435   26.7160   -2.4365 N.am      3 UNK        -0.4354 
     30 C          29.6675   26.1071   -1.2626 C.2       2 UNK         0.4964 
     31 O          29.0383   25.1218   -0.8693 O.2       2 UNK        -0.5047 
     32 CA         30.7641   26.7283   -0.3755 C.3       2 UNK         0.0288 
     33 CB         30.2062   27.9147    0.4287 C.3       2 UNK        -0.2113 
     34 N          31.3330   25.7615    0.5645 N.am      2 UNK        -0.4145 
     35 C          32.0404   24.6774    0.2171 C.2       1 UNK         0.5006 
     36 O          32.3759   24.4166   -0.9437 O.2       1 UNK        -0.5103 
     37 C          24.9981   28.9006    3.0477 C.2       5 UNK         0.5055 
     38 O          24.1807   29.2076    3.9173 O.2       5 UNK        -0.5220 
     39 N          25.8067   29.7861    2.4550 N.am      6 UNK        -0.4450 
     40 CA         25.8262   31.2310    2.6904 C.3       6 UNK         0.0367 
     41 CB         26.2629   31.9234    1.3872 C.3       6 UNK        -0.1929 
     42 C          26.7434   31.6543    3.8526 C.2       6 UNK         0.5070 
     43 O          26.7493   32.8361    4.1978 O.2       6 UNK        -0.5237 
     44 N          27.5166   30.7079    4.4100 N.am      7 UNK        -0.4739 
     45 CA         28.5544   30.9040    5.4358 C.3       7 UNK         0.0276 
     46 CB         27.9472   31.3988    6.7663 C.3       7 UNK        -0.1927 
     47 C          29.7247   31.7749    4.9353 C.2       7 UNK         0.5013 
     48 O          30.2674   32.5861    5.6888 O.2       7 UNK        -0.5193 
     49 N          30.0861   31.5820    3.6601 N.am      8 UNK        -0.4253 
     50 CA         31.2378   32.1979    3.0031 C.3       8 UNK         0.0242 
     51 CB         31.0596   32.0545    1.4810 C.3       8 UNK        -0.2000 
     52 C          32.5537   31.5424    3.4538 C.2       8 UNK         0.4948 
     53 O          32.5381   30.4369    3.9987 O.2       8 UNK        -0.5275 
     54 N          33.6831   32.2000    3.1524 N.am      9 UNK        -0.4246 
     55 CA         35.0439   31.7281    3.4547 C.3       9 UNK         0.0261 
     56 CB         36.0639   32.7733    2.9753 C.3       9 UNK        -0.1959 
     57 C          35.3849   30.3398    2.8761 C.2       9 UNK         0.5033 
     58 O          36.2045   29.6268    3.4571 O.2       9 UNK        -0.5390 
     59 N          34.7136   29.9590    1.7796 N.am      10 UNK        -0.4215 
     60 CA         34.7672   28.6310    1.1648 C.3       10 UNK         0.0240 
     61 CB         34.0038   28.6607   -0.1690 C.3       10 UNK        -0.1982 
     62 C          34.2646   27.4846    2.0672 C.2       10 UNK         0.4970 
     63 O          34.6225   26.3378    1.8014 O.2       10 UNK        -0.4916 
     64 N          33.4852   27.7897    3.1173 N.am      11 UNK        -0.4279 
     65 CA         33.1509   26.8422    4.1948 C.3       11 UNK         0.1003 
     66 C          34.3560   26.4738    5.1138 C.2       11 UNK         0.5709 
     67 N          35.4832   27.1772    5.0695 N.am      11 UNK        -0.7358 
     68 O          34.2649   25.5240    5.8876 O.2       11 UNK        -0.4999 
     69 C69        31.9489   27.3216    5.0499 C.3       12 UNK        -0.0954 
     70 S70        30.4091   27.5500    4.0960 S.3       12 UNK        -0.2268 
     71 C71        29.1617   26.9637    5.2926 C.3       12 UNK         0.0203 
     72 H72        36.4447   21.9220    0.6339 H         1 UNK         0.0888 
     73 H73        35.5894   20.5286    1.3012 H         1 UNK         0.0888 
     74 H74        35.0886   21.2136   -0.2455 H         1 UNK         0.0888 
     75 H75        33.2733   22.5137   -0.1052 H         1 UNK         0.3017 
     76 H76        32.8633   24.3360    2.1438 H         1 UNK         0.0873 
     77 H77        30.3120   23.6909    2.0008 H         1 UNK         0.0745 
     78 H78        30.8352   22.2015    1.2617 H         1 UNK         0.0745 
     79 H79        29.2747   21.3347    3.4442 H         1 UNK         0.0705 
     80 H80        29.8046   21.4603    5.1043 H         1 UNK         0.0705 
     81 H81        30.4900   24.6136    4.8263 H         1 UNK         0.1334 
     82 H82        26.5528   26.2787    5.0434 H         1 UNK         0.1417 
     83 H83        27.0643   22.1561    4.0105 H         1 UNK         0.1562 
     84 H84        24.6634   24.4843    5.3089 H         1 UNK         0.0748 
     85 H85        24.8784   22.9721    4.4799 H         1 UNK         0.0748 
     86 H86        24.2875   26.6018    4.4178 H         1 UNK         0.0940 
     87 H87        23.1296   26.7294    3.1293 H         1 UNK         0.0940 
     88 H88        26.1442   27.1277    2.7983 H         1 UNK         0.0703 
     89 H89        24.0798   26.8815    0.8165 H         1 UNK         0.3081 
     90 H90        24.9106   26.4526   -1.3260 H         1 UNK         0.0719 
     91 H91        25.1873   29.4898   -1.7999 H         1 UNK         0.0809 
     92 H92        24.4144   28.3599   -2.9106 H         1 UNK         0.0809 
     93 H93        23.7080   28.6611   -1.3309 H         1 UNK         0.0809 
     94 H94        27.5026   27.7531   -1.5744 H         1 UNK         0.2990 
     95 H95        28.6555   25.2280   -3.6556 H         1 UNK         0.0690 
     96 H96        29.6805   26.9441   -5.1270 H         1 UNK         0.0788 
     97 H97        28.5167   28.1513   -4.5763 H         1 UNK         0.0788 
     98 H98        27.9776   26.7631   -5.5102 H         1 UNK         0.0788 
     99 H99        29.9956   27.5275   -2.6757 H         1 UNK         0.2993 
    100 H100       31.5690   27.0803   -1.0233 H         1 UNK         0.0949 
    101 H101       29.3970   27.6002    1.0890 H         1 UNK         0.0767 
    102 H102       30.9728   28.3754    1.0512 H         1 UNK         0.0767 
    103 H103       29.8088   28.6902   -0.2271 H         1 UNK         0.0767 
    104 H104       31.0743   25.8843    1.5326 H         1 UNK         0.3013 
    105 H105       26.4233   29.4264    1.7273 H         1 UNK         0.3121 
    106 H106       24.8160   31.5668    2.9347 H         1 UNK         0.0774 
    107 H107       27.2738   31.6348    1.0959 H         1 UNK         0.0815 
    108 H108       26.2520   33.0088    1.4958 H         1 UNK         0.0815 
    109 H109       25.5933   31.6760    0.5632 H         1 UNK         0.0815 
    110 H110       27.4287   29.7710    4.0437 H         1 UNK         0.2987 
    111 H111       28.9912   29.9248    5.6296 H         1 UNK         0.0949 
    112 H112       27.1324   30.7538    7.0947 H         1 UNK         0.0806 
    113 H113       28.6968   31.4013    7.5587 H         1 UNK         0.0806 
    114 H114       27.5607   32.4149    6.6859 H         1 UNK         0.0806 
    115 H115       29.6037   30.8656    3.1394 H         1 UNK         0.3010 
    116 H116       31.2667   33.2578    3.2649 H         1 UNK         0.0829 
    117 H117       31.8655   32.5494    0.9378 H         1 UNK         0.0813 
    118 H118       31.0508   31.0085    1.1711 H         1 UNK         0.0813 
    119 H119       30.1258   32.5084    1.1480 H         1 UNK         0.0813 
    120 H120       33.6117   33.0978    2.6944 H         1 UNK         0.3038 
    121 H121       35.1223   31.6472    4.5409 H         1 UNK         0.0769 
    122 H122       36.0097   32.9266    1.8967 H         1 UNK         0.0811 
    123 H123       37.0827   32.4599    3.2087 H         1 UNK         0.0811 
    124 H124       35.9057   33.7363    3.4612 H         1 UNK         0.0811 
    125 H125       34.0648   30.6182    1.3765 H         1 UNK         0.3204 
    126 H126       35.8156   28.4169    0.9470 H         1 UNK         0.0748 
    127 H127       33.9916   27.6749   -0.6368 H         1 UNK         0.0771 
    128 H128       32.9698   28.9767   -0.0365 H         1 UNK         0.0771 
    129 H129       34.4727   29.3451   -0.8763 H         1 UNK         0.0771 
    130 H130       33.2153   28.7542    3.2897 H         1 UNK         0.2980 
    131 H131       32.8468   25.9080    3.7245 H         1 UNK         0.0545 
    132 H132       35.5889   27.9707    4.4470 H         1 UNK         0.3459 
    133 H133       36.2455   26.9145    5.6734 H         1 UNK         0.3459 
    134 H134       32.1849   28.2632    5.5482 H         1 UNK         0.0616 
    135 H135       31.7570   26.5998    5.8455 H         1 UNK         0.0616 
    136 H136       29.5707   26.9323    6.3028 H         1 UNK         0.0634 
    137 H137       28.3616   27.7036    5.3200 H         1 UNK         0.0634 
@<TRIPOS>BOND
     1    1    2 1    
     2    1   72 1    
     3    1   73 1    
     4    1   74 1    
     5    2    3 2    
     6    2    4 am   BACKBONE|DICT|INTERRES
     7    4    5 1    
     8    4   75 1    
     9    5    6 1    
    10    5   35 1    
    11    5   76 1    
    12    6    7 1    
    13    6   77 1    
    14    6   78 1    
    15    7    8 1    
    16    8    9 1    
    17    8   79 1    
    18    8   80 1    
    19    9   10 ar   
    20    9   14 ar   
    21   10   11 ar   
    22   10   81 1    
    23   11   12 ar   
    24   11   71 1    
    25   12   13 ar   
    26   12   82 1    
    27   13   14 ar   
    28   13   15 1    
    29   14   83 1    
    30   15   16 1    
    31   15   84 1    
    32   15   85 1    
    33   16   17 1    
    34   17   18 1    
    35   17   86 1    
    36   17   87 1    
    37   18   19 1    
    38   18   37 1    
    39   18   88 1    
    40   19   20 am   BACKBONE|DICT|INTERRES
    41   19   89 1    
    42   20   21 2    
    43   20   22 1    
    44   22   23 1    
    45   22   24 1    
    46   22   90 1    
    47   23   91 1    
    48   23   92 1    
    49   23   93 1    
    50   24   25 am   BACKBONE|DICT|INTERRES
    51   24   94 1    
    52   25   26 2    
    53   25   27 1    
    54   27   28 1    
    55   27   29 1    
    56   27   95 1    
    57   28   96 1    
    58   28   97 1    
    59   28   98 1    
    60   29   30 am   BACKBONE|DICT|INTERRES
    61   29   99 1    
    62   30   31 2    
    63   30   32 1    
    64   32   33 1    
    65   32   34 1    
    66   32  100 1    
    67   33  101 1    
    68   33  102 1    
    69   33  103 1    
    70   34   35 am   BACKBONE|DICT|INTERRES
    71   34  104 1    
    72   35   36 2    
    73   37   38 2    
    74   37   39 am   BACKBONE|DICT|INTERRES
    75   39   40 1    
    76   39  105 1    
    77   40   41 1    
    78   40   42 1    
    79   40  106 1    
    80   41  107 1    
    81   41  108 1    
    82   41  109 1    
    83   42   43 2    
    84   42   44 am   BACKBONE|DICT|INTERRES
    85   44   45 1    
    86   44  110 1    
    87   45   46 1    
    88   45   47 1    
    89   45  111 1    
    90   46  112 1    
    91   46  113 1    
    92   46  114 1    
    93   47   48 2    
    94   47   49 am   BACKBONE|DICT|INTERRES
    95   49   50 1    
    96   49  115 1    
    97   50   51 1    
    98   50   52 1    
    99   50  116 1    
   100   51  117 1    
   101   51  118 1    
   102   51  119 1    
   103   52   53 2    
   104   52   54 am   BACKBONE|DICT|INTERRES
   105   54   55 1    
   106   54  120 1    
   107   55   56 1    
   108   55   57 1    
   109   55  121 1    
   110   56  122 1    
   111   56  123 1    
   112   56  124 1    
   113   57   58 2    
   114   57   59 am   BACKBONE|DICT|INTERRES
   115   59   60 1    
   116   59  125 1    
   117   60   61 1    
   118   60   62 1    
   119   60  126 1    
   120   61  127 1    
   121   61  128 1    
   122   61  129 1    
   123   62   63 2    
   124   62   64 am   BACKBONE|DICT|INTERRES
   125   64   65 1    
   126   64  130 1    
   127   65   66 1    
   128   65   69 1    
   129   65  131 1    
   130   66   67 am   BACKBONE|DICT|INTERRES
   131   66   68 2    
   132   67  132 1    
   133   67  133 1    
   134   69   70 1    
   135   69  134 1    
   136   69  135 1    
   137   70   71 1    
   138   71  136 1    
   139   71  137 1    
@<TRIPOS>SUBSTRUCTURE
     1 UNK         1 GROUP             0       ****    0 ROOT    
