@<TRIPOS>MOLECULE
3R136
137   139    1
SMALL
USER_CHARGES


@<TRIPOS>ATOM
      1 CA         25.2853   28.1753    2.7074 C.3       0 UNK        -0.1979 
      2 C          26.1598   26.9443    2.5267 C.2       0 UNK         0.4864 
      3 O          26.4386   26.5621    1.3907 O.2       0 UNK        -0.5359 
      4 N          26.5821   26.3197    3.6366 N.am      1 UNK        -0.4318 
      5 CA         27.4975   25.1733    3.7018 C.3       1 UNK         0.0824 
      6 C6         28.9559   25.5790    3.3472 C.3       12 UNK        -0.0944 
      7 S7         30.1986   24.4665    4.0927 S.3       12 UNK        -0.2672 
      8 C8         31.1430   23.8602    2.6526 C.3       12 UNK         0.0333 
      9 C9         31.6460   24.9805    1.7491 C.ar      12 UNK        -0.0807 
     10 C10        32.3552   26.0639    2.2796 C.ar      12 UNK        -0.0894 
     11 C11        32.7553   27.1205    1.4576 C.ar      12 UNK        -0.0804 
     12 C12        32.4572   27.0814    0.0926 C.ar      12 UNK        -0.0824 
     13 C13        31.7595   25.9996   -0.4538 C.ar      12 UNK        -0.0762 
     14 C14        31.3716   24.9446    0.3782 C.ar      12 UNK        -0.0782 
     15 C15        31.3822   26.0053   -1.9328 C.3       12 UNK         0.0230 
     16 S16        29.5900   25.7855   -2.2268 S.3       12 UNK        -0.2608 
     17 C17        28.8388   27.0049   -1.0965 C.3       12 UNK        -0.0989 
     18 CA         28.2170   28.2344   -1.8130 C.3       5 UNK         0.0716 
     19 N          26.8954   27.9192   -2.3414 N.am      5 UNK        -0.4135 
     20 C          26.5732   27.5882   -3.5951 C.2       4 UNK         0.5031 
     21 O          27.3705   27.5782   -4.5351 O.2       4 UNK        -0.5229 
     22 CA         25.0941   27.1957   -3.8167 C.3       4 UNK         0.0329 
     23 CB         24.8595   26.4312   -5.1376 C.3       4 UNK        -0.2001 
     24 N          24.5333   26.4645   -2.6666 N.am      4 UNK        -0.4303 
     25 C          24.9737   25.2976   -2.1687 C.2       3 UNK         0.5044 
     26 O          25.8118   24.5836   -2.7228 O.2       3 UNK        -0.5152 
     27 CA         24.3937   24.8983   -0.8012 C.3       3 UNK         0.0319 
     28 CB         23.0862   24.0915   -0.9348 C.3       3 UNK        -0.2001 
     29 N          25.4055   24.2357    0.0330 N.am      3 UNK        -0.4354 
     30 C          25.8543   22.9701   -0.0183 C.2       2 UNK         0.4964 
     31 O          25.3432   22.0782   -0.6972 O.2       2 UNK        -0.5047 
     32 CA         27.1030   22.6197    0.8185 C.3       2 UNK         0.0288 
     33 CB         28.2862   22.2786   -0.1048 C.3       2 UNK        -0.2113 
     34 N          27.5243   23.6787    1.7384 N.am      2 UNK        -0.4145 
     35 C          26.9461   23.9620    2.9135 C.2       1 UNK         0.5006 
     36 O          25.9969   23.3266    3.3768 O.2       1 UNK        -0.5103 
     37 C          28.0498   29.3923   -0.8122 C.2       5 UNK         0.5055 
     38 O          26.9268   29.7141   -0.4090 O.2       5 UNK        -0.5220 
     39 N          29.1851   29.9635   -0.3905 N.am      6 UNK        -0.4450 
     40 CA         29.2866   30.8113    0.7989 C.3       6 UNK         0.0367 
     41 CB         30.6428   31.5377    0.7770 C.3       6 UNK        -0.1929 
     42 C          29.1463   29.9724    2.0841 C.2       6 UNK         0.5070 
     43 O          29.3056   28.7508    2.0445 O.2       6 UNK        -0.5237 
     44 N          28.8701   30.6466    3.2073 N.am      7 UNK        -0.4739 
     45 CA         28.7875   30.0349    4.5369 C.3       7 UNK         0.0276 
     46 CB         28.3111   31.0917    5.5463 C.3       7 UNK        -0.1927 
     47 C          30.1313   29.4345    4.9871 C.2       7 UNK         0.5013 
     48 O          31.1871   29.9635    4.6306 O.2       7 UNK        -0.5193 
     49 N          30.0615   28.3719    5.8029 N.am      8 UNK        -0.4253 
     50 CA         31.2017   27.5738    6.2752 C.3       8 UNK         0.0242 
     51 CB         30.6987   26.4876    7.2391 C.3       8 UNK        -0.2000 
     52 C          32.3278   28.3858    6.9361 C.2       8 UNK         0.4948 
     53 O          33.4987   28.0493    6.7602 O.2       8 UNK        -0.5275 
     54 N          31.9615   29.4741    7.6276 N.am      9 UNK        -0.4246 
     55 CA         32.8734   30.4376    8.2501 C.3       9 UNK         0.0261 
     56 CB         32.0472   31.4867    9.0121 C.3       9 UNK        -0.1959 
     57 C          33.8473   31.1281    7.2738 C.2       9 UNK         0.5033 
     58 O          34.8921   31.6036    7.7209 O.2       9 UNK        -0.5390 
     59 N          33.5154   31.1667    5.9739 N.am      10 UNK        -0.4215 
     60 CA         34.3913   31.6880    4.9230 C.3       10 UNK         0.0240 
     61 CB         33.5495   32.0349    3.6828 C.3       10 UNK        -0.1982 
     62 C          35.5313   30.7234    4.5438 C.2       10 UNK         0.4970 
     63 O          36.5153   31.1858    3.9644 O.2       10 UNK        -0.4916 
     64 N          35.3849   29.4255    4.8485 N.am      11 UNK        -0.4279 
     65 CA         36.3374   28.3639    4.4791 C.3       11 UNK         0.1003 
     66 C          36.9335   27.6215    5.7048 C.2       11 UNK         0.5709 
     67 N          36.2524   27.5496    6.8411 N.am      11 UNK        -0.7358 
     68 O          38.0504   27.1149    5.6285 O.2       11 UNK        -0.4999 
     69 C69        35.7141   27.3602    3.4729 C.3       12 UNK        -0.0954 
     70 S70        35.2800   28.1588    1.8906 S.3       12 UNK        -0.2268 
     71 C71        33.4756   28.3252    2.0414 C.3       12 UNK         0.0203 
     72 H72        25.7568   29.0351    2.2310 H         1 UNK         0.0888 
     73 H73        24.3139   28.0170    2.2402 H         1 UNK         0.0888 
     74 H74        25.1252   28.4146    3.7584 H         1 UNK         0.0888 
     75 H75        26.2542   26.6505    4.5329 H         1 UNK         0.3017 
     76 H76        27.4892   24.8696    4.7501 H         1 UNK         0.0873 
     77 H77        29.1645   26.5671    3.7583 H         1 UNK         0.0745 
     78 H78        29.1028   25.6994    2.2735 H         1 UNK         0.0745 
     79 H79        31.9979   23.2850    3.0101 H         1 UNK         0.0705 
     80 H80        30.5148   23.1634    2.0971 H         1 UNK         0.0705 
     81 H81        32.5685   26.0971    3.3386 H         1 UNK         0.1334 
     82 H82        32.7571   27.9055   -0.5402 H         1 UNK         0.1417 
     83 H83        30.8232   24.1133   -0.0430 H         1 UNK         0.1562 
     84 H84        31.9236   25.2060   -2.4402 H         1 UNK         0.0748 
     85 H85        31.6947   26.9369   -2.4071 H         1 UNK         0.0748 
     86 H86        29.5756   27.3098   -0.3542 H         1 UNK         0.0940 
     87 H87        28.0770   26.4802   -0.5206 H         1 UNK         0.0940 
     88 H88        28.8725   28.5788   -2.6157 H         1 UNK         0.0703 
     89 H89        26.1601   27.9977   -1.6519 H         1 UNK         0.3081 
     90 H90        24.5411   28.1340   -3.8810 H         1 UNK         0.0719 
     91 H91        25.4442   25.5121   -5.1852 H         1 UNK         0.0809 
     92 H92        23.8093   26.1683   -5.2634 H         1 UNK         0.0809 
     93 H93        25.1457   27.0402   -5.9960 H         1 UNK         0.0809 
     94 H94        23.8194   26.9592   -2.1488 H         1 UNK         0.2990 
     95 H95        24.1551   25.8178   -0.2639 H         1 UNK         0.0690 
     96 H96        22.7256   23.7527    0.0364 H         1 UNK         0.0788 
     97 H97        23.2075   23.2173   -1.5750 H         1 UNK         0.0788 
     98 H98        22.2995   24.7024   -1.3788 H         1 UNK         0.0788 
     99 H99        25.9271   24.8865    0.6161 H         1 UNK         0.2993 
    100 H100       26.8577   21.7308    1.4038 H         1 UNK         0.0949 
    101 H101       28.0296   21.4657   -0.7855 H         1 UNK         0.0767 
    102 H102       28.5765   23.1332   -0.7175 H         1 UNK         0.0767 
    103 H103       29.1574   21.9548    0.4642 H         1 UNK         0.0767 
    104 H104       28.2666   24.2838    1.4204 H         1 UNK         0.3013 
    105 H105       30.0587   29.6156   -0.7566 H         1 UNK         0.3121 
    106 H106       28.4838   31.5515    0.7748 H         1 UNK         0.0774 
    107 H107       31.4763   30.8356    0.8098 H         1 UNK         0.0815 
    108 H108       30.7482   32.2029    1.6350 H         1 UNK         0.0815 
    109 H109       30.7524   32.1486   -0.1192 H         1 UNK         0.0815 
    110 H110       28.7913   31.6522    3.1664 H         1 UNK         0.2987 
    111 H111       28.0479   29.2327    4.4862 H         1 UNK         0.0949 
    112 H112       29.0167   31.9201    5.6252 H         1 UNK         0.0806 
    113 H113       27.3412   31.5021    5.2644 H         1 UNK         0.0806 
    114 H114       28.2004   30.6628    6.5431 H         1 UNK         0.0806 
    115 H115       29.1487   28.0347    6.0716 H         1 UNK         0.3010 
    116 H116       31.6301   27.0834    5.3990 H         1 UNK         0.0829 
    117 H117       31.5183   25.8428    7.5599 H         1 UNK         0.0813 
    118 H118       30.2512   26.9175    8.1361 H         1 UNK         0.0813 
    119 H119       29.9535   25.8473    6.7676 H         1 UNK         0.0813 
    120 H120       30.9748   29.6735    7.7013 H         1 UNK         0.3038 
    121 H121       33.4812   29.8884    8.9722 H         1 UNK         0.0769 
    122 H122       31.3946   32.0496    8.3433 H         1 UNK         0.0811 
    123 H123       32.6961   32.2055    9.5148 H         1 UNK         0.0811 
    124 H124       31.4261   31.0242    9.7795 H         1 UNK         0.0811 
    125 H125       32.6417   30.7456    5.6648 H         1 UNK         0.3204 
    126 H126       34.8504   32.6108    5.2843 H         1 UNK         0.0748 
    127 H127       34.1635   32.5054    2.9138 H         1 UNK         0.0771 
    128 H128       33.0994   31.1471    3.2381 H         1 UNK         0.0771 
    129 H129       32.7463   32.7301    3.9275 H         1 UNK         0.0771 
    130 H130       34.5765   29.1253    5.3799 H         1 UNK         0.2980 
    131 H131       37.1997   28.8123    3.9823 H         1 UNK         0.0545 
    132 H132       36.6635   27.0741    7.6279 H         1 UNK         0.3459 
    133 H133       35.2844   27.8585    6.8892 H         1 UNK         0.3459 
    134 H134       36.4200   26.5597    3.2441 H         1 UNK         0.0616 
    135 H135       34.8358   26.8764    3.9033 H         1 UNK         0.0616 
    136 H136       33.1913   28.4800    3.0837 H         1 UNK         0.0634 
    137 H137       33.1667   29.2263    1.5110 H         1 UNK         0.0634 
@<TRIPOS>BOND
     1    1    2 1    
     2    1   72 1    
     3    1   73 1    
     4    1   74 1    
     5    2    3 2    
     6    2    4 am   BACKBONE|DICT|INTERRES
     7    4    5 1    
     8    4   75 1    
     9    5    6 1    
    10    5   35 1    
    11    5   76 1    
    12    6    7 1    
    13    6   77 1    
    14    6   78 1    
    15    7    8 1    
    16    8    9 1    
    17    8   79 1    
    18    8   80 1    
    19    9   10 ar   
    20    9   14 ar   
    21   10   11 ar   
    22   10   81 1    
    23   11   12 ar   
    24   11   71 1    
    25   12   13 ar   
    26   12   82 1    
    27   13   14 ar   
    28   13   15 1    
    29   14   83 1    
    30   15   16 1    
    31   15   84 1    
    32   15   85 1    
    33   16   17 1    
    34   17   18 1    
    35   17   86 1    
    36   17   87 1    
    37   18   19 1    
    38   18   37 1    
    39   18   88 1    
    40   19   20 am   BACKBONE|DICT|INTERRES
    41   19   89 1    
    42   20   21 2    
    43   20   22 1    
    44   22   23 1    
    45   22   24 1    
    46   22   90 1    
    47   23   91 1    
    48   23   92 1    
    49   23   93 1    
    50   24   25 am   BACKBONE|DICT|INTERRES
    51   24   94 1    
    52   25   26 2    
    53   25   27 1    
    54   27   28 1    
    55   27   29 1    
    56   27   95 1    
    57   28   96 1    
    58   28   97 1    
    59   28   98 1    
    60   29   30 am   BACKBONE|DICT|INTERRES
    61   29   99 1    
    62   30   31 2    
    63   30   32 1    
    64   32   33 1    
    65   32   34 1    
    66   32  100 1    
    67   33  101 1    
    68   33  102 1    
    69   33  103 1    
    70   34   35 am   BACKBONE|DICT|INTERRES
    71   34  104 1    
    72   35   36 2    
    73   37   38 2    
    74   37   39 am   BACKBONE|DICT|INTERRES
    75   39   40 1    
    76   39  105 1    
    77   40   41 1    
    78   40   42 1    
    79   40  106 1    
    80   41  107 1    
    81   41  108 1    
    82   41  109 1    
    83   42   43 2    
    84   42   44 am   BACKBONE|DICT|INTERRES
    85   44   45 1    
    86   44  110 1    
    87   45   46 1    
    88   45   47 1    
    89   45  111 1    
    90   46  112 1    
    91   46  113 1    
    92   46  114 1    
    93   47   48 2    
    94   47   49 am   BACKBONE|DICT|INTERRES
    95   49   50 1    
    96   49  115 1    
    97   50   51 1    
    98   50   52 1    
    99   50  116 1    
   100   51  117 1    
   101   51  118 1    
   102   51  119 1    
   103   52   53 2    
   104   52   54 am   BACKBONE|DICT|INTERRES
   105   54   55 1    
   106   54  120 1    
   107   55   56 1    
   108   55   57 1    
   109   55  121 1    
   110   56  122 1    
   111   56  123 1    
   112   56  124 1    
   113   57   58 2    
   114   57   59 am   BACKBONE|DICT|INTERRES
   115   59   60 1    
   116   59  125 1    
   117   60   61 1    
   118   60   62 1    
   119   60  126 1    
   120   61  127 1    
   121   61  128 1    
   122   61  129 1    
   123   62   63 2    
   124   62   64 am   BACKBONE|DICT|INTERRES
   125   64   65 1    
   126   64  130 1    
   127   65   66 1    
   128   65   69 1    
   129   65  131 1    
   130   66   67 am   BACKBONE|DICT|INTERRES
   131   66   68 2    
   132   67  132 1    
   133   67  133 1    
   134   69   70 1    
   135   69  134 1    
   136   69  135 1    
   137   70   71 1    
   138   71  136 1    
   139   71  137 1    
@<TRIPOS>SUBSTRUCTURE
     1 UNK         1 GROUP             0       ****    0 ROOT    
