@<TRIPOS>MOLECULE
3R136
137   139    1
SMALL
USER_CHARGES


@<TRIPOS>ATOM
      1 CA         31.5828   27.3117   -3.1522 C.3       0 UNK        -0.1979 
      2 C          30.3830   26.7698   -2.3915 C.2       0 UNK         0.4864 
      3 O          29.3511   27.4366   -2.3222 O.2       0 UNK        -0.5359 
      4 N          30.4976   25.5569   -1.8332 N.am      1 UNK        -0.4318 
      5 CA         29.4949   24.8672   -1.0048 C.3       1 UNK         0.0824 
      6 C6         30.1790   23.7613   -0.1535 C.3       12 UNK        -0.0944 
      7 S7         29.2681   23.3334    1.3678 S.3       12 UNK        -0.2672 
      8 C8         30.5852   22.5856    2.3805 C.3       12 UNK         0.0333 
      9 C9         31.1451   23.5798    3.3868 C.ar      12 UNK        -0.0807 
     10 C10        32.2578   24.3673    3.0740 C.ar      12 UNK        -0.0894 
     11 C11        32.7465   25.3014    3.9946 C.ar      12 UNK        -0.0804 
     12 C12        32.1213   25.4328    5.2379 C.ar      12 UNK        -0.0824 
     13 C13        31.0225   24.6371    5.5693 C.ar      12 UNK        -0.0762 
     14 C14        30.5400   23.7113    4.6399 C.ar      12 UNK        -0.0782 
     15 C15        30.3554   24.7771    6.9294 C.3       12 UNK         0.0230 
     16 S16        28.6421   25.3743    6.7883 S.3       12 UNK        -0.2608 
     17 C17        28.8781   27.0876    6.1989 C.3       12 UNK        -0.0989 
     18 CA         28.7886   27.2464    4.6568 C.3       5 UNK         0.0716 
     19 N          27.6636   26.5016    4.0851 N.am      5 UNK        -0.4135 
     20 C          27.3436   26.3838    2.7896 C.2       4 UNK         0.5031 
     21 O          27.9198   26.9851    1.8776 O.2       4 UNK        -0.5229 
     22 CA         26.2038   25.3893    2.4821 C.3       4 UNK         0.0329 
     23 CB         25.1136   25.3508    3.5796 C.3       4 UNK        -0.2001 
     24 N          25.5871   25.5756    1.1653 N.am      4 UNK        -0.4303 
     25 C          24.9066   26.6436    0.7255 C.2       3 UNK         0.5044 
     26 O          24.7650   27.6924    1.3576 O.2       3 UNK        -0.5152 
     27 CA         24.2924   26.4858   -0.6729 C.3       3 UNK         0.0319 
     28 CB         23.5129   27.7216   -1.1620 C.3       3 UNK        -0.2001 
     29 N          25.3499   26.1429   -1.6203 N.am      3 UNK        -0.4354 
     30 C          25.2372   25.2809   -2.6388 C.2       2 UNK         0.4964 
     31 O          24.1934   24.6990   -2.9355 O.2       2 UNK        -0.5047 
     32 CA         26.5082   25.0138   -3.4630 C.3       2 UNK         0.0288 
     33 CB         26.5413   25.9166   -4.7069 C.3       2 UNK        -0.2113 
     34 N          27.7282   25.2323   -2.6837 N.am      2 UNK        -0.4145 
     35 C          28.2646   24.3693   -1.8116 C.2       1 UNK         0.5006 
     36 O          27.8184   23.2336   -1.6396 O.2       1 UNK        -0.5103 
     37 C          28.7864   28.7425    4.2919 C.2       5 UNK         0.5055 
     38 O          29.8603   29.3260    4.1466 O.2       5 UNK        -0.5220 
     39 N          27.5899   29.3342    4.1595 N.am      6 UNK        -0.4450 
     40 CA         27.3868   30.7392    3.8035 C.3       6 UNK         0.0367 
     41 CB         25.9025   31.1045    3.9656 C.3       6 UNK        -0.1929 
     42 C          27.8767   31.0625    2.3844 C.2       6 UNK         0.5070 
     43 O          28.5849   32.0520    2.1998 O.2       6 UNK        -0.5237 
     44 N          27.5284   30.2028    1.4167 N.am      7 UNK        -0.4739 
     45 CA         27.9830   30.3071    0.0272 C.3       7 UNK         0.0276 
     46 CB         27.1304   29.3900   -0.8582 C.3       7 UNK        -0.1927 
     47 C          29.4759   29.9765   -0.1219 C.2       7 UNK         0.5013 
     48 O          30.1620   30.6077   -0.9264 O.2       7 UNK        -0.5193 
     49 N          29.9560   29.0272    0.6926 N.am      8 UNK        -0.4253 
     50 CA         31.3605   28.6246    0.7732 C.3       8 UNK         0.0242 
     51 CB         31.4306   27.2451    1.4367 C.3       8 UNK        -0.2000 
     52 C          32.2649   29.6301    1.5157 C.2       8 UNK         0.4948 
     53 O          33.4794   29.4269    1.5357 O.2       8 UNK        -0.5275 
     54 N          31.6720   30.6755    2.1135 N.am      9 UNK        -0.4246 
     55 CA         32.3067   31.7517    2.8814 C.3       9 UNK         0.0261 
     56 CB         33.2179   32.6114    1.9792 C.3       9 UNK        -0.1959 
     57 C          33.0136   31.2521    4.1565 C.2       9 UNK         0.5033 
     58 O          34.1124   31.7137    4.4725 O.2       9 UNK        -0.5390 
     59 N          32.3667   30.3177    4.8685 N.am      10 UNK        -0.4215 
     60 CA         32.7158   29.7259    6.1700 C.3       10 UNK         0.0240 
     61 CB         32.7173   30.7965    7.2781 C.3       10 UNK        -0.1982 
     62 C          34.0064   28.8845    6.2238 C.2       10 UNK         0.4970 
     63 O          34.0371   27.9270    6.9956 O.2       10 UNK        -0.4916 
     64 N          35.0250   29.2477    5.4333 N.am      11 UNK        -0.4279 
     65 CA         36.3428   28.6025    5.2667 C.3       11 UNK         0.1003 
     66 C          37.1685   28.3263    6.5625 C.2       11 UNK         0.5709 
     67 N          36.8997   29.0053    7.6712 N.am      11 UNK        -0.7358 
     68 O          38.1005   27.5249    6.5567 O.2       11 UNK        -0.4999 
     69 C69        36.3383   27.4344    4.2335 C.3       12 UNK        -0.0954 
     70 S70        35.3598   25.9629    4.6935 S.3       12 UNK        -0.2268 
     71 C71        33.9077   26.2150    3.6293 C.3       12 UNK         0.0203 
     72 H72        31.8261   28.3139   -2.7999 H         1 UNK         0.0888 
     73 H73        32.4645   26.6840   -3.0246 H         1 UNK         0.0888 
     74 H74        31.3553   27.3713   -4.2160 H         1 UNK         0.0888 
     75 H75        31.3560   25.0438   -1.9752 H         1 UNK         0.3017 
     76 H76        29.0966   25.6140   -0.3144 H         1 UNK         0.0873 
     77 H77        31.1673   24.1027    0.1584 H         1 UNK         0.0745 
     78 H78        30.3484   22.8564   -0.7402 H         1 UNK         0.0745 
     79 H79        31.3795   22.1932    1.7435 H         1 UNK         0.0705 
     80 H80        30.1714   21.7243    2.9072 H         1 UNK         0.0705 
     81 H81        32.7274   24.2692    2.1051 H         1 UNK         0.1334 
     82 H82        32.4941   26.1571    5.9477 H         1 UNK         0.1417 
     83 H83        29.6804   23.1037    4.8888 H         1 UNK         0.1562 
     84 H84        30.9206   25.4461    7.5806 H         1 UNK         0.0748 
     85 H85        30.3493   23.8040    7.4223 H         1 UNK         0.0748 
     86 H86        29.8357   27.4644    6.5637 H         1 UNK         0.0940 
     87 H87        28.1146   27.6945    6.6905 H         1 UNK         0.0940 
     88 H88        29.6899   26.8147    4.2195 H         1 UNK         0.0703 
     89 H89        27.1476   25.9458    4.7516 H         1 UNK         0.3081 
     90 H90        26.6696   24.4039    2.4508 H         1 UNK         0.0719 
     91 H91        24.6933   26.3394    3.7694 H         1 UNK         0.0809 
     92 H92        24.2919   24.6937    3.2941 H         1 UNK         0.0809 
     93 H93        25.5014   24.9676    4.5240 H         1 UNK         0.0809 
     94 H94        25.6761   24.7903    0.5359 H         1 UNK         0.2990 
     95 H95        23.5864   25.6556   -0.5987 H         1 UNK         0.0690 
     96 H96        23.0245   27.5256   -2.1166 H         1 UNK         0.0788 
     97 H97        24.1595   28.5872   -1.2921 H         1 UNK         0.0788 
     98 H98        22.7332   27.9984   -0.4513 H         1 UNK         0.0788 
     99 H99        26.2520   26.5622   -1.4450 H         1 UNK         0.2993 
    100 H100       26.4792   23.9725   -3.7917 H         1 UNK         0.0949 
    101 H101       27.4070   25.6967   -5.3321 H         1 UNK         0.0767 
    102 H102       25.6520   25.7681   -5.3213 H         1 UNK         0.0767 
    103 H103       26.5814   26.9733   -4.4386 H         1 UNK         0.0767 
    104 H104       28.1750   26.1460   -2.7550 H         1 UNK         0.3013 
    105 H105       26.7617   28.7714    4.2884 H         1 UNK         0.3121 
    106 H106       27.9666   31.3478    4.5010 H         1 UNK         0.0774 
    107 H107       25.7295   32.1514    3.7120 H         1 UNK         0.0815 
    108 H108       25.2626   30.5026    3.3185 H         1 UNK         0.0815 
    109 H109       25.5689   30.9630    4.9937 H         1 UNK         0.0815 
    110 H110       26.9727   29.3915    1.6566 H         1 UNK         0.2987 
    111 H111       27.8371   31.3371   -0.3063 H         1 UNK         0.0949 
    112 H112       27.2195   28.3467   -0.5546 H         1 UNK         0.0806 
    113 H113       26.0806   29.6734   -0.8099 H         1 UNK         0.0806 
    114 H114       27.4398   29.4551   -1.9023 H         1 UNK         0.0806 
    115 H115       29.3008   28.5298    1.2863 H         1 UNK         0.3010 
    116 H116       31.7438   28.5346   -0.2446 H         1 UNK         0.0829 
    117 H117       30.7011   26.5530    1.0224 H         1 UNK         0.0813 
    118 H118       32.4138   26.8028    1.2845 H         1 UNK         0.0813 
    119 H119       31.2511   27.3081    2.5097 H         1 UNK         0.0813 
    120 H120       30.6620   30.7192    2.0683 H         1 UNK         0.3038 
    121 H121       31.4919   32.3912    3.2244 H         1 UNK         0.0769 
    122 H122       33.5811   33.4895    2.5145 H         1 UNK         0.0811 
    123 H123       32.6820   32.9678    1.0995 H         1 UNK         0.0811 
    124 H124       34.0919   32.0557    1.6381 H         1 UNK         0.0811 
    125 H125       31.4767   29.9878    4.4901 H         1 UNK         0.3204 
    126 H126       31.9002   29.0350    6.3893 H         1 UNK         0.0748 
    127 H127       32.8789   30.3444    8.2577 H         1 UNK         0.0771 
    128 H128       33.5041   31.5366    7.1288 H         1 UNK         0.0771 
    129 H129       31.7642   31.3241    7.3194 H         1 UNK         0.0771 
    130 H130       34.8908   30.1079    4.9070 H         1 UNK         0.2980 
    131 H131       36.9322   29.3866    4.7905 H         1 UNK         0.0545 
    132 H132       37.4464   28.8337    8.5000 H         1 UNK         0.3459 
    133 H133       36.1388   29.6644    7.6931 H         1 UNK         0.3459 
    134 H134       35.9800   27.8105    3.2739 H         1 UNK         0.0616 
    135 H135       37.3593   27.1030    4.0376 H         1 UNK         0.0616 
    136 H136       34.2133   26.0627    2.5935 H         1 UNK         0.0634 
    137 H137       33.5744   27.2510    3.7059 H         1 UNK         0.0634 
@<TRIPOS>BOND
     1    1    2 1    
     2    1   72 1    
     3    1   73 1    
     4    1   74 1    
     5    2    3 2    
     6    2    4 am   BACKBONE|DICT|INTERRES
     7    4    5 1    
     8    4   75 1    
     9    5    6 1    
    10    5   35 1    
    11    5   76 1    
    12    6    7 1    
    13    6   77 1    
    14    6   78 1    
    15    7    8 1    
    16    8    9 1    
    17    8   79 1    
    18    8   80 1    
    19    9   10 ar   
    20    9   14 ar   
    21   10   11 ar   
    22   10   81 1    
    23   11   12 ar   
    24   11   71 1    
    25   12   13 ar   
    26   12   82 1    
    27   13   14 ar   
    28   13   15 1    
    29   14   83 1    
    30   15   16 1    
    31   15   84 1    
    32   15   85 1    
    33   16   17 1    
    34   17   18 1    
    35   17   86 1    
    36   17   87 1    
    37   18   19 1    
    38   18   37 1    
    39   18   88 1    
    40   19   20 am   BACKBONE|DICT|INTERRES
    41   19   89 1    
    42   20   21 2    
    43   20   22 1    
    44   22   23 1    
    45   22   24 1    
    46   22   90 1    
    47   23   91 1    
    48   23   92 1    
    49   23   93 1    
    50   24   25 am   BACKBONE|DICT|INTERRES
    51   24   94 1    
    52   25   26 2    
    53   25   27 1    
    54   27   28 1    
    55   27   29 1    
    56   27   95 1    
    57   28   96 1    
    58   28   97 1    
    59   28   98 1    
    60   29   30 am   BACKBONE|DICT|INTERRES
    61   29   99 1    
    62   30   31 2    
    63   30   32 1    
    64   32   33 1    
    65   32   34 1    
    66   32  100 1    
    67   33  101 1    
    68   33  102 1    
    69   33  103 1    
    70   34   35 am   BACKBONE|DICT|INTERRES
    71   34  104 1    
    72   35   36 2    
    73   37   38 2    
    74   37   39 am   BACKBONE|DICT|INTERRES
    75   39   40 1    
    76   39  105 1    
    77   40   41 1    
    78   40   42 1    
    79   40  106 1    
    80   41  107 1    
    81   41  108 1    
    82   41  109 1    
    83   42   43 2    
    84   42   44 am   BACKBONE|DICT|INTERRES
    85   44   45 1    
    86   44  110 1    
    87   45   46 1    
    88   45   47 1    
    89   45  111 1    
    90   46  112 1    
    91   46  113 1    
    92   46  114 1    
    93   47   48 2    
    94   47   49 am   BACKBONE|DICT|INTERRES
    95   49   50 1    
    96   49  115 1    
    97   50   51 1    
    98   50   52 1    
    99   50  116 1    
   100   51  117 1    
   101   51  118 1    
   102   51  119 1    
   103   52   53 2    
   104   52   54 am   BACKBONE|DICT|INTERRES
   105   54   55 1    
   106   54  120 1    
   107   55   56 1    
   108   55   57 1    
   109   55  121 1    
   110   56  122 1    
   111   56  123 1    
   112   56  124 1    
   113   57   58 2    
   114   57   59 am   BACKBONE|DICT|INTERRES
   115   59   60 1    
   116   59  125 1    
   117   60   61 1    
   118   60   62 1    
   119   60  126 1    
   120   61  127 1    
   121   61  128 1    
   122   61  129 1    
   123   62   63 2    
   124   62   64 am   BACKBONE|DICT|INTERRES
   125   64   65 1    
   126   64  130 1    
   127   65   66 1    
   128   65   69 1    
   129   65  131 1    
   130   66   67 am   BACKBONE|DICT|INTERRES
   131   66   68 2    
   132   67  132 1    
   133   67  133 1    
   134   69   70 1    
   135   69  134 1    
   136   69  135 1    
   137   70   71 1    
   138   71  136 1    
   139   71  137 1    
@<TRIPOS>SUBSTRUCTURE
     1 UNK         1 GROUP             0       ****    0 ROOT    
