@<TRIPOS>MOLECULE
3R136
137   139    1
SMALL
USER_CHARGES


@<TRIPOS>ATOM
      1 CA         29.8475   23.1778   -1.5247 C.3       0 UNK        -0.1979 
      2 C          28.9040   23.8374   -0.5323 C.2       0 UNK         0.4864 
      3 O          28.3468   24.8943   -0.8345 O.2       0 UNK        -0.5359 
      4 N          28.7262   23.2334    0.6507 N.am      1 UNK        -0.4318 
      5 CA         27.8383   23.7071    1.7199 C.3       1 UNK         0.0824 
      6 C6         27.9920   22.8886    3.0299 C.3       12 UNK        -0.0944 
      7 S7         29.7211   22.6651    3.5854 S.3       12 UNK        -0.2672 
      8 C8         30.0497   24.2056    4.5070 C.3       12 UNK         0.0333 
      9 C9         31.1851   25.0161    3.8898 C.ar      12 UNK        -0.0807 
     10 C10        32.2738   25.4292    4.6630 C.ar      12 UNK        -0.0894 
     11 C11        33.3019   26.2004    4.1060 C.ar      12 UNK        -0.0804 
     12 C12        33.2111   26.5835    2.7586 C.ar      12 UNK        -0.0824 
     13 C13        32.1284   26.1760    1.9739 C.ar      12 UNK        -0.0762 
     14 C14        31.1375   25.3775    2.5440 C.ar      12 UNK        -0.0782 
     15 C15        32.0243   26.5766    0.5066 C.3       12 UNK         0.0230 
     16 S16        31.1736   28.1744    0.2838 S.3       12 UNK        -0.2608 
     17 C17        29.5159   27.8328    0.9651 C.3       12 UNK        -0.0989 
     18 CA         28.3627   28.4065    0.1087 C.3       5 UNK         0.0716 
     19 N          28.2027   27.6592   -1.1336 N.am      5 UNK        -0.4135 
     20 C          27.7035   28.1510   -2.2719 C.2       4 UNK         0.5031 
     21 O          27.3716   29.3275   -2.4245 O.2       4 UNK        -0.5229 
     22 CA         27.5160   27.1539   -3.4206 C.3       4 UNK         0.0329 
     23 CB         28.8719   26.7020   -3.9911 C.3       4 UNK        -0.2001 
     24 N          26.7615   25.9873   -2.9602 N.am      4 UNK        -0.4303 
     25 C          25.6623   25.5017   -3.5497 C.2       3 UNK         0.5044 
     26 O          25.1677   25.9646   -4.5787 O.2       3 UNK        -0.5152 
     27 CA         24.9961   24.2866   -2.8815 C.3       3 UNK         0.0319 
     28 CB         25.7086   22.9878   -3.2922 C.3       3 UNK        -0.2001 
     29 N          24.9529   24.3700   -1.4205 N.am      3 UNK        -0.4354 
     30 C          24.2597   25.2666   -0.7060 C.2       2 UNK         0.4964 
     31 O          23.5596   26.1453   -1.2090 O.2       2 UNK        -0.5047 
     32 CA         24.3593   25.1837    0.8293 C.3       2 UNK         0.0288 
     33 CB         23.2775   24.2555    1.4163 C.3       2 UNK        -0.2113 
     34 N          25.7025   24.8556    1.3286 N.am      2 UNK        -0.4145 
     35 C          26.3753   23.7004    1.2354 C.2       1 UNK         0.5006 
     36 O          25.9112   22.6702    0.7405 O.2       1 UNK        -0.5103 
     37 C          27.0275   28.3367    0.8680 C.2       5 UNK         0.5055 
     38 O          26.8168   27.3923    1.6334 O.2       5 UNK        -0.5220 
     39 N          26.1439   29.3190    0.6343 N.am      6 UNK        -0.4450 
     40 CA         24.8586   29.4745    1.3330 C.3       6 UNK         0.0367 
     41 CB         24.0711   30.6368    0.7084 C.3       6 UNK        -0.1929 
     42 C          25.0231   29.6815    2.8517 C.2       6 UNK         0.5070 
     43 O          24.2012   29.1998    3.6312 O.2       6 UNK        -0.5237 
     44 N          26.1167   30.3482    3.2293 N.am      7 UNK        -0.4739 
     45 CA         26.7282   30.3258    4.5514 C.3       7 UNK         0.0276 
     46 CB         26.5754   31.7040    5.2147 C.3       7 UNK        -0.1927 
     47 C          28.2060   29.9816    4.3205 C.2       7 UNK         0.5013 
     48 O          28.7372   30.3198    3.2576 O.2       7 UNK        -0.5193 
     49 N          28.8352   29.3090    5.2931 N.am      8 UNK        -0.4253 
     50 CA         30.2271   28.8490    5.2233 C.3       8 UNK         0.0242 
     51 CB         30.5605   28.0420    6.4887 C.3       8 UNK        -0.2000 
     52 C          31.2297   30.0027    5.0405 C.2       8 UNK         0.4948 
     53 O          31.0753   31.0538    5.6689 O.2       8 UNK        -0.5275 
     54 N          32.2371   29.7733    4.1905 N.am      9 UNK        -0.4246 
     55 CA         33.3121   30.7216    3.8958 C.3       9 UNK         0.0261 
     56 CB         33.9833   30.3063    2.5742 C.3       9 UNK        -0.1959 
     57 C          34.3471   30.7942    5.0326 C.2       9 UNK         0.5033 
     58 O          34.3210   29.9825    5.9621 O.2       9 UNK        -0.5390 
     59 N          35.2855   31.7417    4.9152 N.am      10 UNK        -0.4215 
     60 CA         36.4331   31.9069    5.8123 C.3       10 UNK         0.0240 
     61 CB         36.9715   33.3439    5.6746 C.3       10 UNK        -0.1982 
     62 C          37.5168   30.8376    5.5564 C.2       10 UNK         0.4970 
     63 O          38.6342   31.1724    5.1586 O.2       10 UNK        -0.4916 
     64 N          37.1552   29.5670    5.7695 N.am      11 UNK        -0.4279 
     65 CA         38.0240   28.3914    5.5976 C.3       11 UNK         0.1003 
     66 C          39.1663   28.2661    6.6491 C.2       11 UNK         0.5709 
     67 N          39.1307   28.9865    7.7644 N.am      11 UNK        -0.7358 
     68 O          40.1071   27.5026    6.4440 O.2       11 UNK        -0.4999 
     69 C69        37.2047   27.0754    5.5248 C.3       12 UNK        -0.0954 
     70 S70        36.0204   27.0309    4.1360 S.3       12 UNK        -0.2268 
     71 C71        34.4730   26.6005    5.0061 C.3       12 UNK         0.0203 
     72 H72        29.3141   22.9343   -2.4429 H         1 UNK         0.0888 
     73 H73        30.6617   23.8573   -1.7742 H         1 UNK         0.0888 
     74 H74        30.2798   22.2596   -1.1276 H         1 UNK         0.0888 
     75 H75        29.1992   22.3617    0.8420 H         1 UNK         0.3017 
     76 H76        28.1087   24.7413    1.9381 H         1 UNK         0.0873 
     77 H77        27.5742   21.8883    2.8978 H         1 UNK         0.0745 
     78 H78        27.4149   23.3452    3.8363 H         1 UNK         0.0745 
     79 H79        30.2816   23.9440    5.5405 H         1 UNK         0.0705 
     80 H80        29.1550   24.8284    4.5425 H         1 UNK         0.0705 
     81 H81        32.3234   25.1477    5.7062 H         1 UNK         0.1334 
     82 H82        33.9832   27.1872    2.3052 H         1 UNK         0.1417 
     83 H83        30.3210   25.0304    1.9350 H         1 UNK         0.1562 
     84 H84        31.4997   25.8080   -0.0631 H         1 UNK         0.0748 
     85 H85        33.0224   26.6466    0.0718 H         1 UNK         0.0748 
     86 H86        29.4963   28.2358    1.9776 H         1 UNK         0.0940 
     87 H87        29.3705   26.7603    1.0655 H         1 UNK         0.0940 
     88 H88        28.5852   29.4538   -0.1078 H         1 UNK         0.0703 
     89 H89        28.3945   26.6608   -1.0712 H         1 UNK         0.3081 
     90 H90        26.9704   27.6741   -4.2108 H         1 UNK         0.0719 
     91 H91        29.4655   27.5586   -4.3132 H         1 UNK         0.0809 
     92 H92        29.4613   26.1520   -3.2563 H         1 UNK         0.0809 
     93 H93        28.7368   26.0563   -4.8589 H         1 UNK         0.0809 
     94 H94        27.1072   25.5288   -2.1209 H         1 UNK         0.2990 
     95 H95        23.9655   24.2375   -3.2393 H         1 UNK         0.0690 
     96 H96        25.1907   22.1112   -2.9025 H         1 UNK         0.0788 
     97 H97        26.7364   22.9586   -2.9287 H         1 UNK         0.0788 
     98 H98        25.7426   22.8872   -4.3780 H         1 UNK         0.0788 
     99 H99        25.4634   23.6630   -0.9010 H         1 UNK         0.2993 
    100 H100       24.1566   26.1880    1.2030 H         1 UNK         0.0949 
    101 H101       23.3719   23.2316    1.0539 H         1 UNK         0.0767 
    102 H102       23.3231   24.2329    2.5052 H         1 UNK         0.0767 
    103 H103       22.2808   24.6025    1.1407 H         1 UNK         0.0767 
    104 H104       26.2122   25.6749    1.6596 H         1 UNK         0.3013 
    105 H105       26.3770   30.0210   -0.0554 H         1 UNK         0.3121 
    106 H106       24.2862   28.5574    1.1852 H         1 UNK         0.0774 
    107 H107       23.1030   30.7574    1.1968 H         1 UNK         0.0815 
    108 H108       24.6035   31.5840    0.8025 H         1 UNK         0.0815 
    109 H109       23.8780   30.4618   -0.3503 H         1 UNK         0.0815 
    110 H110       26.7569   30.6498    2.5049 H         1 UNK         0.2987 
    111 H111       26.2700   29.5550    5.1756 H         1 UNK         0.0949 
    112 H112       25.5250   31.9688    5.3366 H         1 UNK         0.0806 
    113 H113       27.0311   31.7131    6.2056 H         1 UNK         0.0806 
    114 H114       27.0530   32.4898    4.6277 H         1 UNK         0.0806 
    115 H115       28.3359   29.1036    6.1461 H         1 UNK         0.3010 
    116 H116       30.3067   28.1813    4.3623 H         1 UNK         0.0829 
    117 H117       29.9334   27.1542    6.5721 H         1 UNK         0.0813 
    118 H118       31.5978   27.7047    6.4745 H         1 UNK         0.0813 
    119 H119       30.4280   28.6380    7.3925 H         1 UNK         0.0813 
    120 H120       32.3094   28.8652    3.7551 H         1 UNK         0.3038 
    121 H121       32.8708   31.7127    3.7696 H         1 UNK         0.0769 
    122 H122       34.6720   31.0745    2.2213 H         1 UNK         0.0811 
    123 H123       33.2489   30.1504    1.7833 H         1 UNK         0.0811 
    124 H124       34.5586   29.3876    2.6861 H         1 UNK         0.0811 
    125 H125       35.2588   32.3499    4.1093 H         1 UNK         0.3204 
    126 H126       36.0924   31.7805    6.8424 H         1 UNK         0.0748 
    127 H127       37.8103   33.5133    6.3513 H         1 UNK         0.0771 
    128 H128       37.3217   33.5512    4.6625 H         1 UNK         0.0771 
    129 H129       36.2060   34.0796    5.9221 H         1 UNK         0.0771 
    130 H130       36.1934   29.3893    6.0429 H         1 UNK         0.2980 
    131 H131       38.5266   28.5115    4.6360 H         1 UNK         0.0545 
    132 H132       39.8792   28.8978    8.4334 H         1 UNK         0.3459 
    133 H133       38.3625   29.6120    7.9450 H         1 UNK         0.3459 
    134 H134       37.8683   26.2176    5.4003 H         1 UNK         0.0616 
    135 H135       36.6766   26.9139    6.4662 H         1 UNK         0.0616 
    136 H136       34.6913   25.7732    5.6833 H         1 UNK         0.0634 
    137 H137       34.1663   27.4383    5.6307 H         1 UNK         0.0634 
@<TRIPOS>BOND
     1    1    2 1    
     2    1   72 1    
     3    1   73 1    
     4    1   74 1    
     5    2    3 2    
     6    2    4 am   BACKBONE|DICT|INTERRES
     7    4    5 1    
     8    4   75 1    
     9    5    6 1    
    10    5   35 1    
    11    5   76 1    
    12    6    7 1    
    13    6   77 1    
    14    6   78 1    
    15    7    8 1    
    16    8    9 1    
    17    8   79 1    
    18    8   80 1    
    19    9   10 ar   
    20    9   14 ar   
    21   10   11 ar   
    22   10   81 1    
    23   11   12 ar   
    24   11   71 1    
    25   12   13 ar   
    26   12   82 1    
    27   13   14 ar   
    28   13   15 1    
    29   14   83 1    
    30   15   16 1    
    31   15   84 1    
    32   15   85 1    
    33   16   17 1    
    34   17   18 1    
    35   17   86 1    
    36   17   87 1    
    37   18   19 1    
    38   18   37 1    
    39   18   88 1    
    40   19   20 am   BACKBONE|DICT|INTERRES
    41   19   89 1    
    42   20   21 2    
    43   20   22 1    
    44   22   23 1    
    45   22   24 1    
    46   22   90 1    
    47   23   91 1    
    48   23   92 1    
    49   23   93 1    
    50   24   25 am   BACKBONE|DICT|INTERRES
    51   24   94 1    
    52   25   26 2    
    53   25   27 1    
    54   27   28 1    
    55   27   29 1    
    56   27   95 1    
    57   28   96 1    
    58   28   97 1    
    59   28   98 1    
    60   29   30 am   BACKBONE|DICT|INTERRES
    61   29   99 1    
    62   30   31 2    
    63   30   32 1    
    64   32   33 1    
    65   32   34 1    
    66   32  100 1    
    67   33  101 1    
    68   33  102 1    
    69   33  103 1    
    70   34   35 am   BACKBONE|DICT|INTERRES
    71   34  104 1    
    72   35   36 2    
    73   37   38 2    
    74   37   39 am   BACKBONE|DICT|INTERRES
    75   39   40 1    
    76   39  105 1    
    77   40   41 1    
    78   40   42 1    
    79   40  106 1    
    80   41  107 1    
    81   41  108 1    
    82   41  109 1    
    83   42   43 2    
    84   42   44 am   BACKBONE|DICT|INTERRES
    85   44   45 1    
    86   44  110 1    
    87   45   46 1    
    88   45   47 1    
    89   45  111 1    
    90   46  112 1    
    91   46  113 1    
    92   46  114 1    
    93   47   48 2    
    94   47   49 am   BACKBONE|DICT|INTERRES
    95   49   50 1    
    96   49  115 1    
    97   50   51 1    
    98   50   52 1    
    99   50  116 1    
   100   51  117 1    
   101   51  118 1    
   102   51  119 1    
   103   52   53 2    
   104   52   54 am   BACKBONE|DICT|INTERRES
   105   54   55 1    
   106   54  120 1    
   107   55   56 1    
   108   55   57 1    
   109   55  121 1    
   110   56  122 1    
   111   56  123 1    
   112   56  124 1    
   113   57   58 2    
   114   57   59 am   BACKBONE|DICT|INTERRES
   115   59   60 1    
   116   59  125 1    
   117   60   61 1    
   118   60   62 1    
   119   60  126 1    
   120   61  127 1    
   121   61  128 1    
   122   61  129 1    
   123   62   63 2    
   124   62   64 am   BACKBONE|DICT|INTERRES
   125   64   65 1    
   126   64  130 1    
   127   65   66 1    
   128   65   69 1    
   129   65  131 1    
   130   66   67 am   BACKBONE|DICT|INTERRES
   131   66   68 2    
   132   67  132 1    
   133   67  133 1    
   134   69   70 1    
   135   69  134 1    
   136   69  135 1    
   137   70   71 1    
   138   71  136 1    
   139   71  137 1    
@<TRIPOS>SUBSTRUCTURE
     1 UNK         1 GROUP             0       ****    0 ROOT    
