@<TRIPOS>MOLECULE
3R136
137   139    1
SMALL
USER_CHARGES


@<TRIPOS>ATOM
      1 CA         25.0698   20.5364    2.9366 C.3       0 UNK        -0.1979 
      2 C          25.9229   21.3560    1.9805 C.2       0 UNK         0.4864 
      3 O          25.5616   22.4885    1.6617 O.2       0 UNK        -0.5359 
      4 N          27.0592   20.7985    1.5355 N.am      1 UNK        -0.4318 
      5 CA         28.0116   21.3989    0.5867 C.3       1 UNK         0.0824 
      6 C6         29.1791   20.4202    0.2988 C.3       12 UNK        -0.0944 
      7 S7         30.0158   20.7438   -1.2880 S.3       12 UNK        -0.2672 
      8 C8         31.7581   20.8822   -0.7694 C.3       12 UNK         0.0333 
      9 C9         32.0412   22.1646    0.0027 C.ar      12 UNK        -0.0807 
     10 C10        32.4534   22.1179    1.3376 C.ar      12 UNK        -0.0894 
     11 C11        32.7470   23.2924    2.0391 C.ar      12 UNK        -0.0804 
     12 C12        32.6266   24.5223    1.3783 C.ar      12 UNK        -0.0824 
     13 C13        32.2006   24.5903    0.0462 C.ar      12 UNK        -0.0762 
     14 C14        31.9163   23.4022   -0.6318 C.ar      12 UNK        -0.0782 
     15 C15        32.0095   25.9079   -0.7065 C.3       12 UNK         0.0230 
     16 S16        32.8094   27.3861    0.0123 S.3       12 UNK        -0.2608 
     17 C17        31.6488   27.9178    1.3183 C.3       12 UNK        -0.0989 
     18 CA         30.4905   28.7783    0.7529 C.3       5 UNK         0.0716 
     19 N          29.4031   27.9512    0.2317 N.am      5 UNK        -0.4135 
     20 C          28.5951   28.2899   -0.7806 C.2       4 UNK         0.5031 
     21 O          28.7014   29.3311   -1.4285 O.2       4 UNK        -0.5229 
     22 CA         27.4673   27.2999   -1.1254 C.3       4 UNK         0.0329 
     23 CB         27.9306   26.3034   -2.2002 C.3       4 UNK        -0.2001 
     24 N          26.9799   26.5609    0.0421 N.am      4 UNK        -0.4303 
     25 C          26.2879   27.1153    1.0492 C.2       3 UNK         0.5044 
     26 O          25.9379   28.2952    1.0699 O.2       3 UNK        -0.5152 
     27 CA         25.9631   26.2167    2.2561 C.3       3 UNK         0.0319 
     28 CB         24.5719   25.5865    2.0929 C.3       3 UNK        -0.2001 
     29 N          26.9576   25.1657    2.5036 N.am      3 UNK        -0.4354 
     30 C          28.2531   25.3895    2.7811 C.2       2 UNK         0.4964 
     31 O          28.7505   26.5139    2.8342 O.2       2 UNK        -0.5047 
     32 CA         29.1720   24.1771    3.0024 C.3       2 UNK         0.0288 
     33 CB         29.3498   23.9133    4.5052 C.3       2 UNK        -0.2113 
     34 N          28.7351   22.9446    2.3462 N.am      2 UNK        -0.4145 
     35 C          28.5243   22.7879    1.0302 C.2       1 UNK         0.5006 
     36 O          28.6544   23.6912    0.2009 O.2       1 UNK        -0.5103 
     37 C          29.9387   29.7550    1.8046 C.2       5 UNK         0.5055 
     38 O          30.2376   30.9444    1.7311 O.2       5 UNK        -0.5220 
     39 N          29.1073   29.2600    2.7347 N.am      6 UNK        -0.4450 
     40 CA         28.5034   30.0189    3.8385 C.3       6 UNK         0.0367 
     41 CB         27.8110   29.0440    4.8033 C.3       6 UNK        -0.1929 
     42 C          27.5498   31.1563    3.4213 C.2       6 UNK         0.5070 
     43 O          27.1796   31.9676    4.2700 O.2       6 UNK        -0.5237 
     44 N          27.1993   31.2325    2.1303 N.am      7 UNK        -0.4739 
     45 CA         26.5888   32.4043    1.4959 C.3       7 UNK         0.0276 
     46 CB         26.1559   32.0249    0.0706 C.3       7 UNK        -0.1927 
     47 C          27.5233   33.6349    1.4696 C.2       7 UNK         0.5013 
     48 O          27.0298   34.7603    1.3832 O.2       7 UNK        -0.5193 
     49 N          28.8395   33.4022    1.5537 N.am      8 UNK        -0.4253 
     50 CA         29.8931   34.3993    1.7013 C.3       8 UNK         0.0242 
     51 CB         30.6518   34.5373    0.3647 C.3       8 UNK        -0.2000 
     52 C          30.7667   33.9683    2.8939 C.2       8 UNK         0.4948 
     53 O          30.2389   33.8261    3.9987 O.2       8 UNK        -0.5275 
     54 N          32.0724   33.7646    2.6747 N.am      9 UNK        -0.4246 
     55 CA         33.0063   33.2445    3.6733 C.3       9 UNK         0.0261 
     56 CB         34.4370   33.6745    3.3046 C.3       9 UNK        -0.1959 
     57 C          32.8875   31.7137    3.7564 C.2       9 UNK         0.5033 
     58 O          33.2683   31.0267    2.8056 O.2       9 UNK        -0.5390 
     59 N          32.3630   31.2121    4.8825 N.am      10 UNK        -0.4215 
     60 CA         32.2017   29.7836    5.1692 C.3       10 UNK         0.0240 
     61 CB         31.3856   29.6183    6.4630 C.3       10 UNK        -0.1982 
     62 C          33.5489   29.0510    5.2998 C.2       10 UNK         0.4970 
     63 O          34.5333   29.6478    5.7439 O.2       10 UNK        -0.4916 
     64 N          33.5492   27.7614    4.9458 N.am      11 UNK        -0.4279 
     65 CA         34.6818   26.8427    5.1261 C.3       11 UNK         0.1003 
     66 C          34.9737   26.5087    6.6179 C.2       11 UNK         0.5709 
     67 N          36.1860   26.0660    6.9250 N.am      11 UNK        -0.7358 
     68 O          34.1153   26.6230    7.4917 O.2       11 UNK        -0.4999 
     69 C69        34.5225   25.5674    4.2539 C.3       12 UNK        -0.0954 
     70 S70        32.9518   24.6703    4.5246 S.3       12 UNK        -0.2268 
     71 C71        33.2004   23.1787    3.4975 C.3       12 UNK         0.0203 
     72 H72        25.5086   19.5602    3.1423 H         1 UNK         0.0888 
     73 H73        24.9560   21.0640    3.8832 H         1 UNK         0.0888 
     74 H74        24.0784   20.3801    2.5124 H         1 UNK         0.0888 
     75 H75        27.2894   19.8646    1.8446 H         1 UNK         0.3017 
     76 H76        27.4536   21.5513   -0.3398 H         1 UNK         0.0873 
     77 H77        28.8009   19.3985    0.2344 H         1 UNK         0.0745 
     78 H78        29.8990   20.4140    1.1195 H         1 UNK         0.0745 
     79 H79        32.3888   20.8626   -1.6593 H         1 UNK         0.0705 
     80 H80        32.0311   20.0022   -0.1848 H         1 UNK         0.0705 
     81 H81        32.5535   21.1614    1.8326 H         1 UNK         0.1334 
     82 H82        32.8542   25.4317    1.9064 H         1 UNK         0.1417 
     83 H83        31.5849   23.4372   -1.6610 H         1 UNK         0.1562 
     84 H84        30.9437   26.0871   -0.8341 H         1 UNK         0.0748 
     85 H85        32.4138   25.7902   -1.7130 H         1 UNK         0.0748 
     86 H86        32.2476   28.4938    2.0272 H         1 UNK         0.0940 
     87 H87        31.2703   27.0598    1.8753 H         1 UNK         0.0940 
     88 H88        30.8880   29.3941   -0.0576 H         1 UNK         0.0703 
     89 H89        29.2014   27.1028    0.7434 H         1 UNK         0.3081 
     90 H90        26.6354   27.8789   -1.5325 H         1 UNK         0.0719 
     91 H91        27.1103   25.6634   -2.5254 H         1 UNK         0.0809 
     92 H92        28.3034   26.8248   -3.0830 H         1 UNK         0.0809 
     93 H93        28.7319   25.6583   -1.8379 H         1 UNK         0.0809 
     94 H94        27.2417   25.5848    0.1112 H         1 UNK         0.2990 
     95 H95        25.9389   26.8537    3.1409 H         1 UNK         0.0690 
     96 H96        23.8059   26.3555    1.9830 H         1 UNK         0.0788 
     97 H97        24.3034   24.9828    2.9600 H         1 UNK         0.0788 
     98 H98        24.5204   24.9475    1.2106 H         1 UNK         0.0788 
     99 H99        26.6308   24.2093    2.4184 H         1 UNK         0.2993 
    100 H100       30.1432   24.4398    2.5828 H         1 UNK         0.0949 
    101 H101       28.4127   23.6162    4.9778 H         1 UNK         0.0767 
    102 H102       30.0839   23.1278    4.6857 H         1 UNK         0.0767 
    103 H103       29.7062   24.8079    5.0185 H         1 UNK         0.0767 
    104 H104       28.5722   22.1496    2.9463 H         1 UNK         0.3013 
    105 H105       28.9177   28.2576    2.7324 H         1 UNK         0.3121 
    106 H106       29.3228   30.5018    4.3725 H         1 UNK         0.0774 
    107 H107       26.9653   28.5482    4.3287 H         1 UNK         0.0815 
    108 H108       27.4309   29.5665    5.6820 H         1 UNK         0.0815 
    109 H109       28.4988   28.2754    5.1566 H         1 UNK         0.0815 
    110 H110       27.4968   30.4874    1.5164 H         1 UNK         0.2987 
    111 H111       25.7005   32.6773    2.0696 H         1 UNK         0.0949 
    112 H112       27.0079   31.7320   -0.5450 H         1 UNK         0.0806 
    113 H113       25.4486   31.1951    0.0788 H         1 UNK         0.0806 
    114 H114       25.6665   32.8640   -0.4256 H         1 UNK         0.0806 
    115 H115       29.1589   32.4395    1.6523 H         1 UNK         0.3010 
    116 H116       29.4631   35.3689    1.9609 H         1 UNK         0.0829 
    117 H117       29.9788   34.8583   -0.4307 H         1 UNK         0.0813 
    118 H118       31.4426   35.2857    0.4306 H         1 UNK         0.0813 
    119 H119       31.1005   33.5935    0.0508 H         1 UNK         0.0813 
    120 H120       32.4207   33.8447    1.7306 H         1 UNK         0.3038 
    121 H121       32.7698   33.6784    4.6476 H         1 UNK         0.0769 
    122 H122       34.7357   33.2979    2.3253 H         1 UNK         0.0811 
    123 H123       35.1557   33.2947    4.0319 H         1 UNK         0.0811 
    124 H124       34.5334   34.7603    3.2899 H         1 UNK         0.0811 
    125 H125       32.0879   31.8528    5.6129 H         1 UNK         0.3204 
    126 H126       31.6421   29.3409    4.3435 H         1 UNK         0.0748 
    127 H127       31.9189   30.0166    7.3274 H         1 UNK         0.0771 
    128 H128       30.4230   30.1252    6.4047 H         1 UNK         0.0771 
    129 H129       31.1831   28.5654    6.6651 H         1 UNK         0.0771 
    130 H130       32.6878   27.3256    4.6537 H         1 UNK         0.2980 
    131 H131       35.5648   27.3686    4.7571 H         1 UNK         0.0545 
    132 H132       36.3931   25.8349    7.8841 H         1 UNK         0.3459 
    133 H133       36.8986   25.9604    6.2198 H         1 UNK         0.3459 
    134 H134       34.5923   25.8457    3.2026 H         1 UNK         0.0616 
    135 H135       35.3532   24.8809    4.4261 H         1 UNK         0.0616 
    136 H136       32.6470   22.3687    3.9749 H         1 UNK         0.0634 
    137 H137       34.2509   22.8867    3.5234 H         1 UNK         0.0634 
@<TRIPOS>BOND
     1    1    2 1    
     2    1   72 1    
     3    1   73 1    
     4    1   74 1    
     5    2    3 2    
     6    2    4 am   BACKBONE|DICT|INTERRES
     7    4    5 1    
     8    4   75 1    
     9    5    6 1    
    10    5   35 1    
    11    5   76 1    
    12    6    7 1    
    13    6   77 1    
    14    6   78 1    
    15    7    8 1    
    16    8    9 1    
    17    8   79 1    
    18    8   80 1    
    19    9   10 ar   
    20    9   14 ar   
    21   10   11 ar   
    22   10   81 1    
    23   11   12 ar   
    24   11   71 1    
    25   12   13 ar   
    26   12   82 1    
    27   13   14 ar   
    28   13   15 1    
    29   14   83 1    
    30   15   16 1    
    31   15   84 1    
    32   15   85 1    
    33   16   17 1    
    34   17   18 1    
    35   17   86 1    
    36   17   87 1    
    37   18   19 1    
    38   18   37 1    
    39   18   88 1    
    40   19   20 am   BACKBONE|DICT|INTERRES
    41   19   89 1    
    42   20   21 2    
    43   20   22 1    
    44   22   23 1    
    45   22   24 1    
    46   22   90 1    
    47   23   91 1    
    48   23   92 1    
    49   23   93 1    
    50   24   25 am   BACKBONE|DICT|INTERRES
    51   24   94 1    
    52   25   26 2    
    53   25   27 1    
    54   27   28 1    
    55   27   29 1    
    56   27   95 1    
    57   28   96 1    
    58   28   97 1    
    59   28   98 1    
    60   29   30 am   BACKBONE|DICT|INTERRES
    61   29   99 1    
    62   30   31 2    
    63   30   32 1    
    64   32   33 1    
    65   32   34 1    
    66   32  100 1    
    67   33  101 1    
    68   33  102 1    
    69   33  103 1    
    70   34   35 am   BACKBONE|DICT|INTERRES
    71   34  104 1    
    72   35   36 2    
    73   37   38 2    
    74   37   39 am   BACKBONE|DICT|INTERRES
    75   39   40 1    
    76   39  105 1    
    77   40   41 1    
    78   40   42 1    
    79   40  106 1    
    80   41  107 1    
    81   41  108 1    
    82   41  109 1    
    83   42   43 2    
    84   42   44 am   BACKBONE|DICT|INTERRES
    85   44   45 1    
    86   44  110 1    
    87   45   46 1    
    88   45   47 1    
    89   45  111 1    
    90   46  112 1    
    91   46  113 1    
    92   46  114 1    
    93   47   48 2    
    94   47   49 am   BACKBONE|DICT|INTERRES
    95   49   50 1    
    96   49  115 1    
    97   50   51 1    
    98   50   52 1    
    99   50  116 1    
   100   51  117 1    
   101   51  118 1    
   102   51  119 1    
   103   52   53 2    
   104   52   54 am   BACKBONE|DICT|INTERRES
   105   54   55 1    
   106   54  120 1    
   107   55   56 1    
   108   55   57 1    
   109   55  121 1    
   110   56  122 1    
   111   56  123 1    
   112   56  124 1    
   113   57   58 2    
   114   57   59 am   BACKBONE|DICT|INTERRES
   115   59   60 1    
   116   59  125 1    
   117   60   61 1    
   118   60   62 1    
   119   60  126 1    
   120   61  127 1    
   121   61  128 1    
   122   61  129 1    
   123   62   63 2    
   124   62   64 am   BACKBONE|DICT|INTERRES
   125   64   65 1    
   126   64  130 1    
   127   65   66 1    
   128   65   69 1    
   129   65  131 1    
   130   66   67 am   BACKBONE|DICT|INTERRES
   131   66   68 2    
   132   67  132 1    
   133   67  133 1    
   134   69   70 1    
   135   69  134 1    
   136   69  135 1    
   137   70   71 1    
   138   71  136 1    
   139   71  137 1    
@<TRIPOS>SUBSTRUCTURE
     1 UNK         1 GROUP             0       ****    0 ROOT    
