@<TRIPOS>MOLECULE
3R136
137   139    1
SMALL
USER_CHARGES


@<TRIPOS>ATOM
      1 CA         28.1669   19.3171    2.8403 C.3       0 UNK        -0.1979 
      2 C          28.0523   19.6302    1.3556 C.2       0 UNK         0.4864 
      3 O          27.7549   18.7330    0.5662 O.2       0 UNK        -0.5359 
      4 N          28.2754   20.8955    0.9787 N.am      1 UNK        -0.4318 
      5 CA         28.2330   21.3953   -0.4030 C.3       1 UNK         0.0824 
      6 C6         29.6069   21.9398   -0.8837 C.3       12 UNK        -0.0944 
      7 S7         30.9391   20.6909   -0.7950 S.3       12 UNK        -0.2672 
      8 C8         32.4184   21.7159   -0.4531 C.3       12 UNK         0.0333 
      9 C9         32.4182   22.4972    0.8649 C.ar      12 UNK        -0.0807 
     10 C10        33.3769   23.4976    1.0509 C.ar      12 UNK        -0.0894 
     11 C11        33.4097   24.2678    2.2188 C.ar      12 UNK        -0.0804 
     12 C12        32.4428   24.0358    3.2095 C.ar      12 UNK        -0.0824 
     13 C13        31.4652   23.0534    3.0326 C.ar      12 UNK        -0.0762 
     14 C14        31.4905   22.2610    1.8841 C.ar      12 UNK        -0.0782 
     15 C15        30.3603   22.8454    4.0587 C.3       12 UNK         0.0230 
     16 S16        28.7269   23.2363    3.3405 S.3       12 UNK        -0.2608 
     17 C17        28.3478   24.8786    4.0378 C.3       12 UNK        -0.0989 
     18 CA         28.9935   26.0606    3.2725 C.3       5 UNK         0.0716 
     19 N          28.6441   26.0965    1.8507 N.am      5 UNK        -0.4135 
     20 C          29.2855   26.8512    0.9436 C.2       4 UNK         0.5031 
     21 O          30.2791   27.5311    1.2056 O.2       4 UNK        -0.5229 
     22 CA         28.7406   26.8811   -0.4954 C.3       4 UNK         0.0329 
     23 CB         29.5187   25.9054   -1.3887 C.3       4 UNK        -0.2001 
     24 N          27.3072   26.5976   -0.5745 N.am      4 UNK        -0.4303 
     25 C          26.3573   27.4435   -0.1462 C.2       3 UNK         0.5044 
     26 O          26.5955   28.5837    0.2537 O.2       3 UNK        -0.5152 
     27 CA         24.8953   26.9551   -0.1542 C.3       3 UNK         0.0319 
     28 CB         24.1078   27.6381   -1.2848 C.3       3 UNK        -0.2001 
     29 N          24.7183   25.5034   -0.2654 N.am      3 UNK        -0.4354 
     30 C          25.1661   24.5830    0.5998 C.2       2 UNK         0.4964 
     31 O          25.8425   24.8512    1.5939 O.2       2 UNK        -0.5047 
     32 CA         24.8252   23.1098    0.2998 C.3       2 UNK         0.0288 
     33 CB         23.9660   22.8970   -0.9691 C.3       2 UNK        -0.2113 
     34 N          26.0277   22.2720    0.2437 N.am      2 UNK        -0.4145 
     35 C          27.1005   22.4362   -0.5487 C.2       1 UNK         0.5006 
     36 O          27.2112   23.3592   -1.3593 O.2       1 UNK        -0.5103 
     37 C          28.6001   27.4051    3.9160 C.2       5 UNK         0.5055 
     38 O          27.4129   27.7365    3.9364 O.2       5 UNK        -0.5220 
     39 N          29.6023   28.1470    4.4114 N.am      6 UNK        -0.4450 
     40 CA         29.5044   29.4972    4.9838 C.3       6 UNK         0.0367 
     41 CB         28.7693   29.4643    6.3406 C.3       6 UNK        -0.1929 
     42 C          28.9054   30.5199    3.9949 C.2       6 UNK         0.5070 
     43 O          27.9949   31.2693    4.3518 O.2       6 UNK        -0.5237 
     44 N          29.4247   30.5125    2.7580 N.am      7 UNK        -0.4739 
     45 CA         29.0133   31.3864    1.6538 C.3       7 UNK         0.0276 
     46 CB         29.7842   30.9870    0.3855 C.3       7 UNK        -0.1927 
     47 C          29.1946   32.8904    1.9330 C.2       7 UNK         0.5013 
     48 O          28.3894   33.6921    1.4566 O.2       7 UNK        -0.5193 
     49 N          30.2347   33.2423    2.6963 N.am      8 UNK        -0.4253 
     50 CA         30.5258   34.5956    3.1615 C.3       8 UNK         0.0242 
     51 CB         31.3996   35.3284    2.1199 C.3       8 UNK        -0.2000 
     52 C          31.1487   34.4901    4.5625 C.2       8 UNK         0.4948 
     53 O          30.6511   33.7190    5.3853 O.2       8 UNK        -0.5275 
     54 N          32.2422   35.2259    4.8116 N.am      9 UNK        -0.4246 
     55 CA         33.0545   35.1340    6.0336 C.3       9 UNK         0.0261 
     56 CB         34.0543   36.3017    6.0638 C.3       9 UNK        -0.1959 
     57 C          33.7928   33.7865    6.1797 C.2       9 UNK         0.5033 
     58 O          34.1848   33.4264    7.2907 O.2       9 UNK        -0.5390 
     59 N          33.9513   33.0698    5.0630 N.am      10 UNK        -0.4215 
     60 CA         34.4154   31.6932    4.9637 C.3       10 UNK         0.0240 
     61 CB         35.8832   31.6845    4.5010 C.3       10 UNK        -0.1982 
     62 C          33.5078   30.9668    3.9606 C.2       10 UNK         0.4970 
     63 O          32.7110   31.6107    3.2684 O.2       10 UNK        -0.4916 
     64 N          33.6387   29.6391    3.9013 N.am      11 UNK        -0.4279 
     65 CA         32.9634   28.7953    2.9097 C.3       11 UNK         0.1003 
     66 C          33.5738   28.9011    1.4834 C.2       11 UNK         0.5709 
     67 N          32.8301   28.4814    0.4703 N.am      11 UNK        -0.7358 
     68 O          34.7074   29.3372    1.2895 O.2       11 UNK        -0.4999 
     69 C69        32.8248   27.3352    3.4065 C.3       12 UNK        -0.0954 
     70 S70        34.3931   26.4749    3.7614 S.3       12 UNK        -0.2268 
     71 C71        34.5043   25.3354    2.3368 C.3       12 UNK         0.0203 
     72 H72        28.3852   20.2053    3.4321 H         1 UNK         0.0888 
     73 H73        27.2348   18.8882    3.2071 H         1 UNK         0.0888 
     74 H74        28.9645   18.5941    3.0091 H         1 UNK         0.0888 
     75 H75        28.4682   21.5978    1.6833 H         1 UNK         0.3017 
     76 H76        27.9572   20.5850   -1.0807 H         1 UNK         0.0873 
     77 H77        29.5467   22.2805   -1.9191 H         1 UNK         0.0745 
     78 H78        29.8881   22.8102   -0.2915 H         1 UNK         0.0745 
     79 H79        32.5430   22.4135   -1.2829 H         1 UNK         0.0705 
     80 H80        33.2927   21.0639   -0.4648 H         1 UNK         0.0705 
     81 H81        34.1068   23.6818    0.2739 H         1 UNK         0.1334 
     82 H82        32.4329   24.6211    4.1169 H         1 UNK         0.1417 
     83 H83        30.7526   21.4819    1.7783 H         1 UNK         0.1562 
     84 H84        30.5356   23.4399    4.9564 H         1 UNK         0.0748 
     85 H85        30.3651   21.8021    4.3776 H         1 UNK         0.0748 
     86 H86        28.6455   24.8915    5.0880 H         1 UNK         0.0940 
     87 H87        27.2605   24.9821    4.0381 H         1 UNK         0.0940 
     88 H88        30.0753   25.9375    3.3421 H         1 UNK         0.0703 
     89 H89        27.7922   25.6116    1.5914 H         1 UNK         0.3081 
     90 H90        28.9056   27.8871   -0.8854 H         1 UNK         0.0719 
     91 H91        30.5869   26.1266   -1.3717 H         1 UNK         0.0809 
     92 H92        29.1898   25.9656   -2.4262 H         1 UNK         0.0809 
     93 H93        29.3948   24.8772   -1.0572 H         1 UNK         0.0809 
     94 H94        27.0365   25.6748   -0.8919 H         1 UNK         0.2990 
     95 H95        24.4580   27.2607    0.7986 H         1 UNK         0.0690 
     96 H96        23.0476   27.3880   -1.2395 H         1 UNK         0.0788 
     97 H97        24.4815   27.3486   -2.2678 H         1 UNK         0.0788 
     98 H98        24.1839   28.7243   -1.2146 H         1 UNK         0.0788 
     99 H99        24.1974   25.1769   -1.0666 H         1 UNK         0.2993 
    100 H100       24.2442   22.7603    1.1548 H         1 UNK         0.0949 
    101 H101       23.0181   23.4330   -0.9034 H         1 UNK         0.0767 
    102 H102       24.4774   23.2253   -1.8750 H         1 UNK         0.0767 
    103 H103       23.7209   21.8426   -1.0986 H         1 UNK         0.0767 
    104 H104       26.0521   21.5030    0.8980 H         1 UNK         0.3013 
    105 H105       30.5371   27.7740    4.3438 H         1 UNK         0.3121 
    106 H106       30.5264   29.8287    5.1758 H         1 UNK         0.0774 
    107 H107       28.7889   30.4454    6.8170 H         1 UNK         0.0815 
    108 H108       27.7228   29.1792    6.2285 H         1 UNK         0.0815 
    109 H109       29.2373   28.7612    7.0294 H         1 UNK         0.0815 
    110 H110       30.1236   29.8191    2.5361 H         1 UNK         0.2987 
    111 H111       27.9492   31.2121    1.4789 H         1 UNK         0.0949 
    112 H112       29.5674   29.9591    0.0992 H         1 UNK         0.0806 
    113 H113       29.5055   31.6200   -0.4581 H         1 UNK         0.0806 
    114 H114       30.8629   31.0784    0.5218 H         1 UNK         0.0806 
    115 H115       30.8480   32.5153    3.0520 H         1 UNK         0.3010 
    116 H116       29.5900   35.1454    3.2826 H         1 UNK         0.0829 
    117 H117       30.9063   35.3558    1.1480 H         1 UNK         0.0813 
    118 H118       31.5812   36.3651    2.4059 H         1 UNK         0.0813 
    119 H119       32.3646   34.8386    1.9817 H         1 UNK         0.0813 
    120 H120       32.5797   35.8452    4.0883 H         1 UNK         0.3038 
    121 H121       32.3855   35.2320    6.8912 H         1 UNK         0.0769 
    122 H122       34.7458   36.2644    5.2210 H         1 UNK         0.0811 
    123 H123       34.6522   36.2793    6.9761 H         1 UNK         0.0811 
    124 H124       33.5429   37.2642    6.0385 H         1 UNK         0.0811 
    125 H125       33.5269   33.4161    4.2127 H         1 UNK         0.3204 
    126 H126       34.3265   31.1944    5.9313 H         1 UNK         0.0748 
    127 H127       36.2738   30.6681    4.4398 H         1 UNK         0.0771 
    128 H128       35.9975   32.1384    3.5156 H         1 UNK         0.0771 
    129 H129       36.5189   32.2327    5.1967 H         1 UNK         0.0771 
    130 H130       34.3365   29.1795    4.4677 H         1 UNK         0.2980 
    131 H131       31.9478   29.1812    2.8158 H         1 UNK         0.0545 
    132 H132       31.8980   28.1080    0.6400 H         1 UNK         0.3459 
    133 H133       33.1951   28.5289   -0.4668 H         1 UNK         0.3459 
    134 H134       32.2500   27.3205    4.3318 H         1 UNK         0.0616 
    135 H135       32.2458   26.7543    2.6898 H         1 UNK         0.0616 
    136 H136       34.5183   25.9338    1.4245 H         1 UNK         0.0634 
    137 H137       35.4700   24.8309    2.3878 H         1 UNK         0.0634 
@<TRIPOS>BOND
     1    1    2 1    
     2    1   72 1    
     3    1   73 1    
     4    1   74 1    
     5    2    3 2    
     6    2    4 am   BACKBONE|DICT|INTERRES
     7    4    5 1    
     8    4   75 1    
     9    5    6 1    
    10    5   35 1    
    11    5   76 1    
    12    6    7 1    
    13    6   77 1    
    14    6   78 1    
    15    7    8 1    
    16    8    9 1    
    17    8   79 1    
    18    8   80 1    
    19    9   10 ar   
    20    9   14 ar   
    21   10   11 ar   
    22   10   81 1    
    23   11   12 ar   
    24   11   71 1    
    25   12   13 ar   
    26   12   82 1    
    27   13   14 ar   
    28   13   15 1    
    29   14   83 1    
    30   15   16 1    
    31   15   84 1    
    32   15   85 1    
    33   16   17 1    
    34   17   18 1    
    35   17   86 1    
    36   17   87 1    
    37   18   19 1    
    38   18   37 1    
    39   18   88 1    
    40   19   20 am   BACKBONE|DICT|INTERRES
    41   19   89 1    
    42   20   21 2    
    43   20   22 1    
    44   22   23 1    
    45   22   24 1    
    46   22   90 1    
    47   23   91 1    
    48   23   92 1    
    49   23   93 1    
    50   24   25 am   BACKBONE|DICT|INTERRES
    51   24   94 1    
    52   25   26 2    
    53   25   27 1    
    54   27   28 1    
    55   27   29 1    
    56   27   95 1    
    57   28   96 1    
    58   28   97 1    
    59   28   98 1    
    60   29   30 am   BACKBONE|DICT|INTERRES
    61   29   99 1    
    62   30   31 2    
    63   30   32 1    
    64   32   33 1    
    65   32   34 1    
    66   32  100 1    
    67   33  101 1    
    68   33  102 1    
    69   33  103 1    
    70   34   35 am   BACKBONE|DICT|INTERRES
    71   34  104 1    
    72   35   36 2    
    73   37   38 2    
    74   37   39 am   BACKBONE|DICT|INTERRES
    75   39   40 1    
    76   39  105 1    
    77   40   41 1    
    78   40   42 1    
    79   40  106 1    
    80   41  107 1    
    81   41  108 1    
    82   41  109 1    
    83   42   43 2    
    84   42   44 am   BACKBONE|DICT|INTERRES
    85   44   45 1    
    86   44  110 1    
    87   45   46 1    
    88   45   47 1    
    89   45  111 1    
    90   46  112 1    
    91   46  113 1    
    92   46  114 1    
    93   47   48 2    
    94   47   49 am   BACKBONE|DICT|INTERRES
    95   49   50 1    
    96   49  115 1    
    97   50   51 1    
    98   50   52 1    
    99   50  116 1    
   100   51  117 1    
   101   51  118 1    
   102   51  119 1    
   103   52   53 2    
   104   52   54 am   BACKBONE|DICT|INTERRES
   105   54   55 1    
   106   54  120 1    
   107   55   56 1    
   108   55   57 1    
   109   55  121 1    
   110   56  122 1    
   111   56  123 1    
   112   56  124 1    
   113   57   58 2    
   114   57   59 am   BACKBONE|DICT|INTERRES
   115   59   60 1    
   116   59  125 1    
   117   60   61 1    
   118   60   62 1    
   119   60  126 1    
   120   61  127 1    
   121   61  128 1    
   122   61  129 1    
   123   62   63 2    
   124   62   64 am   BACKBONE|DICT|INTERRES
   125   64   65 1    
   126   64  130 1    
   127   65   66 1    
   128   65   69 1    
   129   65  131 1    
   130   66   67 am   BACKBONE|DICT|INTERRES
   131   66   68 2    
   132   67  132 1    
   133   67  133 1    
   134   69   70 1    
   135   69  134 1    
   136   69  135 1    
   137   70   71 1    
   138   71  136 1    
   139   71  137 1    
@<TRIPOS>SUBSTRUCTURE
     1 UNK         1 GROUP             0       ****    0 ROOT    
