@<TRIPOS>MOLECULE
3R136
137   139    1
SMALL
USER_CHARGES


@<TRIPOS>ATOM
      1 CA         28.2969   24.0721    3.6782 C.3       0 UNK        -0.1979 
      2 C          28.3126   22.6348    3.1845 C.2       0 UNK         0.4864 
      3 O          27.4207   21.8617    3.5364 O.2       0 UNK        -0.5359 
      4 N          29.3037   22.2724    2.3549 N.am      1 UNK        -0.4318 
      5 CA         29.3804   20.9690    1.6777 C.3       1 UNK         0.0824 
      6 C6         30.7963   20.6628    1.1262 C.3       12 UNK        -0.0944 
      7 S7         31.3967   21.8239   -0.1529 S.3       12 UNK        -0.2672 
      8 C8         32.7911   22.6388    0.6877 C.3       12 UNK         0.0333 
      9 C9         32.3051   23.6878    1.6744 C.ar      12 UNK        -0.0807 
     10 C10        32.2860   23.4214    3.0449 C.ar      12 UNK        -0.0894 
     11 C11        31.8249   24.3847    3.9454 C.ar      12 UNK        -0.0804 
     12 C12        31.3852   25.6238    3.4650 C.ar      12 UNK        -0.0824 
     13 C13        31.3946   25.9052    2.0935 C.ar      12 UNK        -0.0762 
     14 C14        31.8710   24.9304    1.2075 C.ar      12 UNK        -0.0782 
     15 C15        30.9159   27.2759    1.6083 C.3       12 UNK         0.0230 
     16 S16        30.3227   27.3229   -0.1204 S.3       12 UNK        -0.2608 
     17 C17        28.6606   26.5798    0.0203 C.3       12 UNK        -0.0989 
     18 CA         27.5502   27.6188   -0.2756 C.3       5 UNK         0.0716 
     19 N          26.2869   26.9872   -0.6612 N.am      5 UNK        -0.4135 
     20 C          25.2959   27.6313   -1.2993 C.2       4 UNK         0.5031 
     21 O          25.3594   28.8195   -1.6198 O.2       4 UNK        -0.5229 
     22 CA         24.0329   26.8392   -1.6918 C.3       4 UNK         0.0329 
     23 CB         24.0013   26.6020   -3.2113 C.3       4 UNK        -0.2001 
     24 N          23.9071   25.5499   -1.0144 N.am      4 UNK        -0.4303 
     25 C          23.5326   25.3844    0.2606 C.2       3 UNK         0.5044 
     26 O          23.1800   26.3065    0.9963 O.2       3 UNK        -0.5152 
     27 CA         23.5682   23.9468    0.8145 C.3       3 UNK         0.0319 
     28 CB         22.1544   23.3429    0.8277 C.3       3 UNK        -0.2001 
     29 N          24.4746   23.0339    0.1024 N.am      3 UNK        -0.4354 
     30 C          25.8010   23.1936    0.0042 C.2       2 UNK         0.4964 
     31 O          26.4078   24.1848    0.4214 O.2       2 UNK        -0.5047 
     32 CA         26.5851   22.0827   -0.7008 C.3       2 UNK         0.0288 
     33 CB         26.9036   22.4782   -2.1520 C.3       2 UNK        -0.2113 
     34 N          27.8247   21.9309    0.0461 N.am      2 UNK        -0.4145 
     35 C          28.2771   20.8033    0.6068 C.2       1 UNK         0.5006 
     36 O          27.8339   19.6813    0.3535 O.2       1 UNK        -0.5103 
     37 C          27.3447   28.5855    0.9070 C.2       5 UNK         0.5055 
     38 O          26.8216   28.1797    1.9473 O.2       5 UNK        -0.5220 
     39 N          27.7996   29.8289    0.7318 N.am      6 UNK        -0.4450 
     40 CA         27.8501   30.8837    1.7356 C.3       6 UNK         0.0367 
     41 CB         26.4598   31.5149    1.9339 C.3       6 UNK        -0.1929 
     42 C          28.8653   31.9208    1.2454 C.2       6 UNK         0.5070 
     43 O          28.9564   32.1520    0.0368 O.2       6 UNK        -0.5237 
     44 N          29.6036   32.5211    2.1810 N.am      7 UNK        -0.4739 
     45 CA         30.6580   33.5083    1.9582 C.3       7 UNK         0.0276 
     46 CB         31.8591   32.8749    1.2214 C.3       7 UNK        -0.1927 
     47 C          31.1021   34.0430    3.3243 C.2       7 UNK         0.5013 
     48 O          30.8445   33.3978    4.3449 O.2       7 UNK        -0.5193 
     49 N          31.8076   35.1818    3.3199 N.am      8 UNK        -0.4253 
     50 CA         32.3903   35.8038    4.5164 C.3       8 UNK         0.0242 
     51 CB         32.9040   37.2081    4.1582 C.3       8 UNK        -0.2000 
     52 C          33.5125   34.9715    5.1687 C.2       8 UNK         0.4948 
     53 O          33.7523   35.1223    6.3671 O.2       8 UNK        -0.5275 
     54 N          34.1640   34.1091    4.3780 N.am      9 UNK        -0.4246 
     55 CA         35.2005   33.1702    4.8067 C.3       9 UNK         0.0261 
     56 CB         36.5703   33.6546    4.2931 C.3       9 UNK        -0.1959 
     57 C          34.8528   31.7466    4.3368 C.2       9 UNK         0.5033 
     58 O          35.7343   31.0183    3.8744 O.2       9 UNK        -0.5390 
     59 N          33.5681   31.3736    4.4427 N.am      10 UNK        -0.4215 
     60 CA         33.0604   30.0380    4.1169 C.3       10 UNK         0.0240 
     61 CB         31.5276   30.0263    4.2316 C.3       10 UNK        -0.1982 
     62 C          33.6634   28.9515    5.0214 C.2       10 UNK         0.4970 
     63 O          33.8447   29.1850    6.2186 O.2       10 UNK        -0.4916 
     64 N          33.9272   27.7817    4.4280 N.am      11 UNK        -0.4279 
     65 CA         34.4999   26.5932    5.0808 C.3       11 UNK         0.1003 
     66 C          36.0055   26.7179    5.4725 C.2       11 UNK         0.5709 
     67 N          36.7179   27.7597    5.0571 N.am      11 UNK        -0.7358 
     68 O          36.5520   25.8405    6.1367 O.2       11 UNK        -0.4999 
     69 C69        33.5991   26.0631    6.2392 C.3       12 UNK        -0.0954 
     70 S70        33.4137   24.2501    6.2182 S.3       12 UNK        -0.2268 
     71 C71        31.7811   24.0668    5.4335 C.3       12 UNK         0.0203 
     72 H72        27.2710   24.4284    3.7695 H         1 UNK         0.0888 
     73 H73        28.7737   24.1448    4.6548 H         1 UNK         0.0888 
     74 H74        28.8114   24.7340    2.9844 H         1 UNK         0.0888 
     75 H75        30.0371   22.9302    2.1229 H         1 UNK         0.3017 
     76 H76        29.1729   20.2100    2.4355 H         1 UNK         0.0873 
     77 H77        30.8185   19.6580    0.7000 H         1 UNK         0.0745 
     78 H78        31.5064   20.6355    1.9536 H         1 UNK         0.0745 
     79 H79        33.4226   23.1156   -0.0635 H         1 UNK         0.0705 
     80 H80        33.4178   21.8937    1.1803 H         1 UNK         0.0705 
     81 H81        32.6239   22.4623    3.4139 H         1 UNK         0.1334 
     82 H82        31.0277   26.3685    4.1631 H         1 UNK         0.1417 
     83 H83        31.9032   25.1252    0.1447 H         1 UNK         0.1562 
     84 H84        31.7458   27.9773    1.6994 H         1 UNK         0.0748 
     85 H85        30.1225   27.6499    2.2575 H         1 UNK         0.0748 
     86 H86        28.5221   26.1097    0.9956 H         1 UNK         0.0940 
     87 H87        28.6142   25.7676   -0.7072 H         1 UNK         0.0940 
     88 H88        27.8737   28.2008   -1.1423 H         1 UNK         0.0703 
     89 H89        26.1576   26.0247   -0.3674 H         1 UNK         0.3081 
     90 H90        23.1701   27.4538   -1.4258 H         1 UNK         0.0719 
     91 H91        24.0527   27.5460   -3.7559 H         1 UNK         0.0809 
     92 H92        24.8408   25.9892   -3.5426 H         1 UNK         0.0809 
     93 H93        23.0801   26.1054   -3.5171 H         1 UNK         0.0809 
     94 H94        24.1686   24.7299   -1.5418 H         1 UNK         0.2990 
     95 H95        23.9198   24.0133    1.8464 H         1 UNK         0.0690 
     96 H96        22.1427   22.3675    1.3146 H         1 UNK         0.0788 
     97 H97        21.7578   23.2213   -0.1812 H         1 UNK         0.0788 
     98 H98        21.4608   23.9829    1.3753 H         1 UNK         0.0788 
     99 H99        24.0549   22.2011   -0.2865 H         1 UNK         0.2993 
    100 H100       26.0056   21.1568   -0.6859 H         1 UNK         0.0949 
    101 H101       27.4537   23.4192   -2.2046 H         1 UNK         0.0767 
    102 H102       27.5051   21.7137   -2.6443 H         1 UNK         0.0767 
    103 H103       25.9897   22.5984   -2.7350 H         1 UNK         0.0767 
    104 H104       28.2229   22.8043    0.3641 H         1 UNK         0.3013 
    105 H105       28.2300   30.0908   -0.1479 H         1 UNK         0.3121 
    106 H106       28.2003   30.4584    2.6789 H         1 UNK         0.0774 
    107 H107       26.4991   32.3244    2.6638 H         1 UNK         0.0815 
    108 H108       26.0719   31.9309    1.0031 H         1 UNK         0.0815 
    109 H109       25.7381   30.7846    2.2999 H         1 UNK         0.0815 
    110 H110       29.4561   32.3111    3.1621 H         1 UNK         0.2987 
    111 H111       30.2500   34.3336    1.3707 H         1 UNK         0.0949 
    112 H112       31.5832   32.5181    0.2295 H         1 UNK         0.0806 
    113 H113       32.6635   33.5974    1.0793 H         1 UNK         0.0806 
    114 H114       32.2730   32.0306    1.7732 H         1 UNK         0.0806 
    115 H115       31.9734   35.6507    2.4403 H         1 UNK         0.3010 
    116 H116       31.5952   35.9096    5.2579 H         1 UNK         0.0829 
    117 H117       33.6917   37.1711    3.4046 H         1 UNK         0.0813 
    118 H118       33.3169   37.7080    5.0358 H         1 UNK         0.0813 
    119 H119       32.1017   37.8400    3.7769 H         1 UNK         0.0813 
    120 H120       33.8918   34.0551    3.4068 H         1 UNK         0.3038 
    121 H121       35.2435   33.1262    5.8970 H         1 UNK         0.0769 
    122 H122       36.7965   34.6572    4.6564 H         1 UNK         0.0811 
    123 H123       36.6072   33.6760    3.2034 H         1 UNK         0.0811 
    124 H124       37.3723   32.9994    4.6358 H         1 UNK         0.0811 
    125 H125       32.9068   32.0238    4.8462 H         1 UNK         0.3204 
    126 H126       33.3328   29.8227    3.0814 H         1 UNK         0.0748 
    127 H127       31.1256   29.0225    4.0929 H         1 UNK         0.0771 
    128 H128       31.1929   30.3762    5.2092 H         1 UNK         0.0771 
    129 H129       31.0729   30.6598    3.4738 H         1 UNK         0.0771 
    130 H130       33.7653   27.6876    3.4363 H         1 UNK         0.2980 
    131 H131       34.4962   25.8474    4.2851 H         1 UNK         0.0545 
    132 H132       37.6919   27.8196    5.3080 H         1 UNK         0.3459 
    133 H133       36.2889   28.5012    4.5240 H         1 UNK         0.3459 
    134 H134       32.6012   26.5001    6.1884 H         1 UNK         0.0616 
    135 H135       33.9877   26.3656    7.2133 H         1 UNK         0.0616 
    136 H136       31.0524   24.6969    5.9456 H         1 UNK         0.0634 
    137 H137       31.4410   23.0395    5.5729 H         1 UNK         0.0634 
@<TRIPOS>BOND
     1    1    2 1    
     2    1   72 1    
     3    1   73 1    
     4    1   74 1    
     5    2    3 2    
     6    2    4 am   BACKBONE|DICT|INTERRES
     7    4    5 1    
     8    4   75 1    
     9    5    6 1    
    10    5   35 1    
    11    5   76 1    
    12    6    7 1    
    13    6   77 1    
    14    6   78 1    
    15    7    8 1    
    16    8    9 1    
    17    8   79 1    
    18    8   80 1    
    19    9   10 ar   
    20    9   14 ar   
    21   10   11 ar   
    22   10   81 1    
    23   11   12 ar   
    24   11   71 1    
    25   12   13 ar   
    26   12   82 1    
    27   13   14 ar   
    28   13   15 1    
    29   14   83 1    
    30   15   16 1    
    31   15   84 1    
    32   15   85 1    
    33   16   17 1    
    34   17   18 1    
    35   17   86 1    
    36   17   87 1    
    37   18   19 1    
    38   18   37 1    
    39   18   88 1    
    40   19   20 am   BACKBONE|DICT|INTERRES
    41   19   89 1    
    42   20   21 2    
    43   20   22 1    
    44   22   23 1    
    45   22   24 1    
    46   22   90 1    
    47   23   91 1    
    48   23   92 1    
    49   23   93 1    
    50   24   25 am   BACKBONE|DICT|INTERRES
    51   24   94 1    
    52   25   26 2    
    53   25   27 1    
    54   27   28 1    
    55   27   29 1    
    56   27   95 1    
    57   28   96 1    
    58   28   97 1    
    59   28   98 1    
    60   29   30 am   BACKBONE|DICT|INTERRES
    61   29   99 1    
    62   30   31 2    
    63   30   32 1    
    64   32   33 1    
    65   32   34 1    
    66   32  100 1    
    67   33  101 1    
    68   33  102 1    
    69   33  103 1    
    70   34   35 am   BACKBONE|DICT|INTERRES
    71   34  104 1    
    72   35   36 2    
    73   37   38 2    
    74   37   39 am   BACKBONE|DICT|INTERRES
    75   39   40 1    
    76   39  105 1    
    77   40   41 1    
    78   40   42 1    
    79   40  106 1    
    80   41  107 1    
    81   41  108 1    
    82   41  109 1    
    83   42   43 2    
    84   42   44 am   BACKBONE|DICT|INTERRES
    85   44   45 1    
    86   44  110 1    
    87   45   46 1    
    88   45   47 1    
    89   45  111 1    
    90   46  112 1    
    91   46  113 1    
    92   46  114 1    
    93   47   48 2    
    94   47   49 am   BACKBONE|DICT|INTERRES
    95   49   50 1    
    96   49  115 1    
    97   50   51 1    
    98   50   52 1    
    99   50  116 1    
   100   51  117 1    
   101   51  118 1    
   102   51  119 1    
   103   52   53 2    
   104   52   54 am   BACKBONE|DICT|INTERRES
   105   54   55 1    
   106   54  120 1    
   107   55   56 1    
   108   55   57 1    
   109   55  121 1    
   110   56  122 1    
   111   56  123 1    
   112   56  124 1    
   113   57   58 2    
   114   57   59 am   BACKBONE|DICT|INTERRES
   115   59   60 1    
   116   59  125 1    
   117   60   61 1    
   118   60   62 1    
   119   60  126 1    
   120   61  127 1    
   121   61  128 1    
   122   61  129 1    
   123   62   63 2    
   124   62   64 am   BACKBONE|DICT|INTERRES
   125   64   65 1    
   126   64  130 1    
   127   65   66 1    
   128   65   69 1    
   129   65  131 1    
   130   66   67 am   BACKBONE|DICT|INTERRES
   131   66   68 2    
   132   67  132 1    
   133   67  133 1    
   134   69   70 1    
   135   69  134 1    
   136   69  135 1    
   137   70   71 1    
   138   71  136 1    
   139   71  137 1    
@<TRIPOS>SUBSTRUCTURE
     1 UNK         1 GROUP             0       ****    0 ROOT    
