@<TRIPOS>MOLECULE
3R136
137   139    1
SMALL
USER_CHARGES


@<TRIPOS>ATOM
      1 CA         26.7397   24.6567    5.7229 C.3       0 UNK        -0.1979 
      2 C          26.4629   23.5306    4.7371 C.2       0 UNK         0.4864 
      3 O          25.4756   22.8094    4.8907 O.2       0 UNK        -0.5359 
      4 N          27.3328   23.3707    3.7326 N.am      1 UNK        -0.4318 
      5 CA         27.1923   22.4089    2.6357 C.3       1 UNK         0.0824 
      6 C6         28.5486   22.1690    1.9207 C.3       12 UNK        -0.0944 
      7 S7         29.3177   23.6964    1.2795 S.3       12 UNK        -0.2672 
      8 C8         31.0837   23.2445    1.2984 C.3       12 UNK         0.0333 
      9 C9         31.9755   24.4537    1.0456 C.ar      12 UNK        -0.0807 
     10 C10        32.9772   24.8010    1.9572 C.ar      12 UNK        -0.0894 
     11 C11        33.7901   25.9217    1.7378 C.ar      12 UNK        -0.0804 
     12 C12        33.5773   26.6971    0.5906 C.ar      12 UNK        -0.0824 
     13 C13        32.5872   26.3572   -0.3389 C.ar      12 UNK        -0.0762 
     14 C14        31.8046   25.2215   -0.1076 C.ar      12 UNK        -0.0782 
     15 C15        32.4229   27.1852   -1.6139 C.3       12 UNK         0.0230 
     16 S16        30.7065   27.2574   -2.2482 S.3       12 UNK        -0.2608 
     17 C17        30.1815   28.9565   -1.8333 C.3       12 UNK        -0.0989 
     18 CA         29.3193   29.0775   -0.5530 C.3       5 UNK         0.0716 
     19 N          28.1428   28.1991   -0.5701 N.am      5 UNK        -0.4135 
     20 C          27.1233   28.2232    0.2989 C.2       4 UNK         0.5031 
     21 O          27.0781   28.9904    1.2626 O.2       4 UNK        -0.5229 
     22 CA         25.9768   27.2116    0.1066 C.3       4 UNK         0.0329 
     23 CB         24.7507   27.8901   -0.5339 C.3       4 UNK        -0.2001 
     24 N          26.3213   25.9650   -0.5970 N.am      4 UNK        -0.4303 
     25 C          26.6819   25.7885   -1.8795 C.2       3 UNK         0.5044 
     26 O          26.8671   26.7170   -2.6659 O.2       3 UNK        -0.5152 
     27 CA         26.9024   24.3458   -2.3781 C.3       3 UNK         0.0319 
     28 CB         28.4012   24.0681   -2.5767 C.3       3 UNK        -0.2001 
     29 N          26.3406   23.3238   -1.4920 N.am      3 UNK        -0.4354 
     30 C          25.0310   23.0792   -1.3343 C.2       2 UNK         0.4964 
     31 O          24.1507   23.6239   -2.0010 O.2       2 UNK        -0.5047 
     32 CA         24.6257   22.0780   -0.2333 C.3       2 UNK         0.0288 
     33 CB         24.2740   20.7147   -0.8516 C.3       2 UNK        -0.2113 
     34 N          25.6316   21.8815    0.8199 N.am      2 UNK        -0.4145 
     35 C          26.0938   22.8386    1.6387 C.2       1 UNK         0.5006 
     36 O          25.7305   24.0175    1.5792 O.2       1 UNK        -0.5103 
     37 C          30.1740   28.9916    0.7276 C.2       5 UNK         0.5055 
     38 O          30.9559   29.9105    0.9721 O.2       5 UNK        -0.5220 
     39 N          29.9753   27.9544    1.5551 N.am      6 UNK        -0.4450 
     40 CA         30.5468   27.8324    2.8972 C.3       6 UNK         0.0367 
     41 CB         30.0654   26.5318    3.5577 C.3       6 UNK        -0.1929 
     42 C          30.2244   29.0214    3.8168 C.2       6 UNK         0.5070 
     43 O          31.0849   29.4252    4.5990 O.2       6 UNK        -0.5237 
     44 N          29.0088   29.5738    3.6898 N.am      7 UNK        -0.4739 
     45 CA         28.5583   30.7479    4.4397 C.3       7 UNK         0.0276 
     46 CB         27.0317   30.8748    4.3185 C.3       7 UNK        -0.1927 
     47 C          29.2484   32.0441    3.9832 C.2       7 UNK         0.5013 
     48 O          29.5186   32.9079    4.8172 O.2       7 UNK        -0.5193 
     49 N          29.5358   32.1485    2.6780 N.am      8 UNK        -0.4253 
     50 CA         30.2623   33.2684    2.0757 C.3       8 UNK         0.0242 
     51 CB         29.9991   33.3028    0.5609 C.3       8 UNK        -0.2000 
     52 C          31.7686   33.1932    2.3697 C.2       8 UNK         0.4948 
     53 O          32.3784   34.2163    2.6817 O.2       8 UNK        -0.5275 
     54 N          32.3334   31.9809    2.2837 N.am      9 UNK        -0.4246 
     55 CA         33.7347   31.6798    2.5822 C.3       9 UNK         0.0261 
     56 CB         34.0688   30.2838    2.0280 C.3       9 UNK        -0.1959 
     57 C          34.0794   31.7469    4.0812 C.2       9 UNK         0.5033 
     58 O          35.2585   31.8867    4.4089 O.2       9 UNK        -0.5390 
     59 N          33.0637   31.6135    4.9497 N.am      10 UNK        -0.4215 
     60 CA         33.1487   31.4448    6.4064 C.3       10 UNK         0.0240 
     61 CB         33.7217   32.7047    7.0900 C.3       10 UNK        -0.1982 
     62 C          33.9011   30.1490    6.7658 C.2       10 UNK         0.4970 
     63 O          34.8391   30.1686    7.5654 O.2       10 UNK        -0.4916 
     64 N          33.4910   29.0560    6.1117 N.am      11 UNK        -0.4279 
     65 CA         34.0989   27.7236    6.1981 C.3       11 UNK         0.1003 
     66 C          33.9641   27.0731    7.6031 C.2       11 UNK         0.5709 
     67 N          34.9126   26.2309    7.9894 N.am      11 UNK        -0.7358 
     68 O          32.9946   27.2948    8.3270 O.2       11 UNK        -0.4999 
     69 C69        33.5426   26.8043    5.0774 C.3       12 UNK        -0.0954 
     70 S70        34.8017   25.6807    4.3940 S.3       12 UNK        -0.2268 
     71 C71        34.9455   26.2909    2.6749 C.3       12 UNK         0.0203 
     72 H72        26.7992   24.2621    6.7369 H         1 UNK         0.0888 
     73 H73        27.6762   25.1697    5.5045 H         1 UNK         0.0888 
     74 H74        25.9348   25.3904    5.6886 H         1 UNK         0.0888 
     75 H75        28.1089   24.0088    3.6349 H         1 UNK         0.3017 
     76 H76        26.8733   21.4593    3.0716 H         1 UNK         0.0873 
     77 H77        29.2372   21.7003    2.6255 H         1 UNK         0.0745 
     78 H78        28.4447   21.4570    1.0999 H         1 UNK         0.0745 
     79 H79        31.2719   22.4885    0.5350 H         1 UNK         0.0705 
     80 H80        31.3264   22.7893    2.2598 H         1 UNK         0.0705 
     81 H81        33.1259   24.1849    2.8322 H         1 UNK         0.1334 
     82 H82        34.2066   27.5571    0.4060 H         1 UNK         0.1417 
     83 H83        31.0496   24.9291   -0.8226 H         1 UNK         0.1562 
     84 H84        33.0501   26.7387   -2.3862 H         1 UNK         0.0748 
     85 H85        32.8052   28.1952   -1.4602 H         1 UNK         0.0748 
     86 H86        31.0463   29.6214   -1.7889 H         1 UNK         0.0940 
     87 H87        29.5973   29.3187   -2.6807 H         1 UNK         0.0940 
     88 H88        28.9195   30.0938   -0.5481 H         1 UNK         0.0703 
     89 H89        28.0619   27.5738   -1.3654 H         1 UNK         0.3081 
     90 H90        25.6857   26.8978    1.1105 H         1 UNK         0.0719 
     91 H91        23.9061   27.2036   -0.5958 H         1 UNK         0.0809 
     92 H92        24.4279   28.7483    0.0572 H         1 UNK         0.0809 
     93 H93        24.9634   28.2527   -1.5400 H         1 UNK         0.0809 
     94 H94        26.2256   25.1339   -0.0204 H         1 UNK         0.2990 
     95 H95        26.4101   24.2619   -3.3493 H         1 UNK         0.0690 
     96 H96        28.9509   24.1371   -1.6389 H         1 UNK         0.0788 
     97 H97        28.8447   24.7881   -3.2661 H         1 UNK         0.0788 
     98 H98        28.5708   23.0756   -2.9945 H         1 UNK         0.0788 
     99 H99        26.9944   22.8232   -0.9083 H         1 UNK         0.2993 
    100 H100       23.7291   22.4798    0.2438 H         1 UNK         0.0949 
    101 H101       25.1411   20.2489   -1.3219 H         1 UNK         0.0767 
    102 H102       23.8862   20.0255   -0.1011 H         1 UNK         0.0767 
    103 H103       23.5048   20.8197   -1.6184 H         1 UNK         0.0767 
    104 H104       25.9873   20.9417    0.9243 H         1 UNK         0.3013 
    105 H105       29.3355   27.2309    1.2638 H         1 UNK         0.3121 
    106 H106       31.6275   27.7896    2.7705 H         1 UNK         0.0774 
    107 H107       30.3914   26.4715    4.5967 H         1 UNK         0.0815 
    108 H108       28.9778   26.4538    3.5526 H         1 UNK         0.0815 
    109 H109       30.4706   25.6602    3.0511 H         1 UNK         0.0815 
    110 H110       28.3687   29.1987    2.9977 H         1 UNK         0.2987 
    111 H111       28.8066   30.5961    5.4927 H         1 UNK         0.0949 
    112 H112       26.7177   31.0083    3.2823 H         1 UNK         0.0806 
    113 H113       26.5285   29.9899    4.7085 H         1 UNK         0.0806 
    114 H114       26.6647   31.7320    4.8847 H         1 UNK         0.0806 
    115 H115       29.3136   31.3685    2.0764 H         1 UNK         0.3010 
    116 H116       29.8832   34.1980    2.5064 H         1 UNK         0.0829 
    117 H117       30.5030   34.1531    0.0994 H         1 UNK         0.0813 
    118 H118       30.3600   32.4028    0.0622 H         1 UNK         0.0813 
    119 H119       28.9351   33.4022    0.3454 H         1 UNK         0.0813 
    120 H120       31.7689   31.2054    1.9378 H         1 UNK         0.3038 
    121 H121       34.3574   32.4143    2.0672 H         1 UNK         0.0769 
    122 H122       35.1174   30.0351    2.1967 H         1 UNK         0.0811 
    123 H123       33.8908   30.2302    0.9538 H         1 UNK         0.0811 
    124 H124       33.4676   29.5085    2.5044 H         1 UNK         0.0811 
    125 H125       32.1483   31.4388    4.5547 H         1 UNK         0.3204 
    126 H126       32.1245   31.3148    6.7599 H         1 UNK         0.0748 
    127 H127       33.6728   32.6130    8.1757 H         1 UNK         0.0771 
    128 H128       34.7661   32.8744    6.8268 H         1 UNK         0.0771 
    129 H129       33.1572   33.5952    6.8135 H         1 UNK         0.0771 
    130 H130       32.6679   29.1370    5.5194 H         1 UNK         0.2980 
    131 H131       35.1637   27.8857    6.0173 H         1 UNK         0.0545 
    132 H132       34.8386   25.7869    8.8912 H         1 UNK         0.3459 
    133 H133       35.6924   26.0185    7.3866 H         1 UNK         0.3459 
    134 H134       32.6855   26.2199    5.4164 H         1 UNK         0.0616 
    135 H135       33.1748   27.4105    4.2529 H         1 UNK         0.0616 
    136 H136       35.0767   27.3737    2.7019 H         1 UNK         0.0634 
    137 H137       35.8634   25.8829    2.2504 H         1 UNK         0.0634 
@<TRIPOS>BOND
     1    1    2 1    
     2    1   72 1    
     3    1   73 1    
     4    1   74 1    
     5    2    3 2    
     6    2    4 am   BACKBONE|DICT|INTERRES
     7    4    5 1    
     8    4   75 1    
     9    5    6 1    
    10    5   35 1    
    11    5   76 1    
    12    6    7 1    
    13    6   77 1    
    14    6   78 1    
    15    7    8 1    
    16    8    9 1    
    17    8   79 1    
    18    8   80 1    
    19    9   10 ar   
    20    9   14 ar   
    21   10   11 ar   
    22   10   81 1    
    23   11   12 ar   
    24   11   71 1    
    25   12   13 ar   
    26   12   82 1    
    27   13   14 ar   
    28   13   15 1    
    29   14   83 1    
    30   15   16 1    
    31   15   84 1    
    32   15   85 1    
    33   16   17 1    
    34   17   18 1    
    35   17   86 1    
    36   17   87 1    
    37   18   19 1    
    38   18   37 1    
    39   18   88 1    
    40   19   20 am   BACKBONE|DICT|INTERRES
    41   19   89 1    
    42   20   21 2    
    43   20   22 1    
    44   22   23 1    
    45   22   24 1    
    46   22   90 1    
    47   23   91 1    
    48   23   92 1    
    49   23   93 1    
    50   24   25 am   BACKBONE|DICT|INTERRES
    51   24   94 1    
    52   25   26 2    
    53   25   27 1    
    54   27   28 1    
    55   27   29 1    
    56   27   95 1    
    57   28   96 1    
    58   28   97 1    
    59   28   98 1    
    60   29   30 am   BACKBONE|DICT|INTERRES
    61   29   99 1    
    62   30   31 2    
    63   30   32 1    
    64   32   33 1    
    65   32   34 1    
    66   32  100 1    
    67   33  101 1    
    68   33  102 1    
    69   33  103 1    
    70   34   35 am   BACKBONE|DICT|INTERRES
    71   34  104 1    
    72   35   36 2    
    73   37   38 2    
    74   37   39 am   BACKBONE|DICT|INTERRES
    75   39   40 1    
    76   39  105 1    
    77   40   41 1    
    78   40   42 1    
    79   40  106 1    
    80   41  107 1    
    81   41  108 1    
    82   41  109 1    
    83   42   43 2    
    84   42   44 am   BACKBONE|DICT|INTERRES
    85   44   45 1    
    86   44  110 1    
    87   45   46 1    
    88   45   47 1    
    89   45  111 1    
    90   46  112 1    
    91   46  113 1    
    92   46  114 1    
    93   47   48 2    
    94   47   49 am   BACKBONE|DICT|INTERRES
    95   49   50 1    
    96   49  115 1    
    97   50   51 1    
    98   50   52 1    
    99   50  116 1    
   100   51  117 1    
   101   51  118 1    
   102   51  119 1    
   103   52   53 2    
   104   52   54 am   BACKBONE|DICT|INTERRES
   105   54   55 1    
   106   54  120 1    
   107   55   56 1    
   108   55   57 1    
   109   55  121 1    
   110   56  122 1    
   111   56  123 1    
   112   56  124 1    
   113   57   58 2    
   114   57   59 am   BACKBONE|DICT|INTERRES
   115   59   60 1    
   116   59  125 1    
   117   60   61 1    
   118   60   62 1    
   119   60  126 1    
   120   61  127 1    
   121   61  128 1    
   122   61  129 1    
   123   62   63 2    
   124   62   64 am   BACKBONE|DICT|INTERRES
   125   64   65 1    
   126   64  130 1    
   127   65   66 1    
   128   65   69 1    
   129   65  131 1    
   130   66   67 am   BACKBONE|DICT|INTERRES
   131   66   68 2    
   132   67  132 1    
   133   67  133 1    
   134   69   70 1    
   135   69  134 1    
   136   69  135 1    
   137   70   71 1    
   138   71  136 1    
   139   71  137 1    
@<TRIPOS>SUBSTRUCTURE
     1 UNK         1 GROUP             0       ****    0 ROOT    
