@<TRIPOS>MOLECULE
3R136
137   139    1
SMALL
USER_CHARGES


@<TRIPOS>ATOM
      1 CA         25.8016   18.7720    1.7202 C.3       0 UNK        -0.1979 
      2 C          26.9990   19.4670    1.0886 C.2       0 UNK         0.4864 
      3 O          27.6154   18.9146    0.1757 O.2       0 UNK        -0.5359 
      4 N          27.3374   20.6686    1.5733 N.am      1 UNK        -0.4318 
      5 CA         28.4288   21.5049    1.0644 C.3       1 UNK         0.0824 
      6 C6         28.7333   22.6912    2.0121 C.3       12 UNK        -0.0944 
      7 S7         29.2597   22.1379    3.6670 S.3       12 UNK        -0.2672 
      8 C8         30.7759   23.1210    3.9171 C.3       12 UNK         0.0333 
      9 C9         30.5203   24.6254    3.9591 C.ar      12 UNK        -0.0807 
     10 C10        31.3336   25.4942    3.2256 C.ar      12 UNK        -0.0894 
     11 C11        31.1477   26.8789    3.2983 C.ar      12 UNK        -0.0804 
     12 C12        30.1156   27.3946    4.0895 C.ar      12 UNK        -0.0824 
     13 C13        29.2791   26.5360    4.8103 C.ar      12 UNK        -0.0762 
     14 C14        29.5006   25.1568    4.7552 C.ar      12 UNK        -0.0782 
     15 C15        28.1488   27.0815    5.6728 C.3       12 UNK         0.0230 
     16 S16        26.5153   26.6025    5.0153 S.3       12 UNK        -0.2608 
     17 C17        25.9787   28.1197    4.1554 C.3       12 UNK        -0.0989 
     18 CA         26.6465   28.3238    2.7688 C.3       5 UNK         0.0716 
     19 N          26.5058   27.1828    1.8574 N.am      5 UNK        -0.4135 
     20 C          25.3874   26.7619    1.2509 C.2       4 UNK         0.5031 
     21 O          24.2649   27.2001    1.5087 O.2       4 UNK        -0.5229 
     22 CA         25.5553   25.7022    0.1369 C.3       4 UNK         0.0329 
     23 CB         24.5405   25.9092   -1.0068 C.3       4 UNK        -0.2001 
     24 N          26.9140   25.5872   -0.4222 N.am      4 UNK        -0.4303 
     25 C          27.6669   26.5602   -0.9668 C.2       3 UNK         0.5044 
     26 O          27.3217   27.7407   -1.0159 O.2       3 UNK        -0.5152 
     27 CA         29.0680   26.1852   -1.4845 C.3       3 UNK         0.0319 
     28 CB         30.1397   26.6952   -0.5066 C.3       3 UNK        -0.2001 
     29 N          29.2566   24.7474   -1.6841 N.am      3 UNK        -0.4354 
     30 C          28.7299   24.0341   -2.6902 C.2       2 UNK         0.4964 
     31 O          28.0882   24.5259   -3.6186 O.2       2 UNK        -0.5047 
     32 CA         28.9291   22.5074   -2.6319 C.3       2 UNK         0.0288 
     33 CB         30.1622   22.0932   -3.4514 C.3       2 UNK        -0.2113 
     34 N          29.0527   21.9799   -1.2659 N.am      2 UNK        -0.4145 
     35 C          28.0870   22.0419   -0.3371 C.2       1 UNK         0.5006 
     36 O          26.9851   22.5619   -0.5302 O.2       1 UNK        -0.5103 
     37 C          26.2610   29.6748    2.1137 C.2       5 UNK         0.5055 
     38 O          25.8838   30.6082    2.8260 O.2       5 UNK        -0.5220 
     39 N          26.3805   29.7810    0.7786 N.am      6 UNK        -0.4450 
     40 CA         26.2769   31.0480    0.0474 C.3       6 UNK         0.0367 
     41 CB         26.0272   30.7743   -1.4442 C.3       6 UNK        -0.1929 
     42 C          27.5438   31.8967    0.2467 C.2       6 UNK         0.5070 
     43 O          27.4488   33.1171    0.3795 O.2       6 UNK        -0.5237 
     44 N          28.6989   31.2218    0.3115 N.am      7 UNK        -0.4739 
     45 CA         29.9480   31.7642    0.8393 C.3       7 UNK         0.0276 
     46 CB         31.1302   31.0236    0.1920 C.3       7 UNK        -0.1927 
     47 C          29.9709   31.5775    2.3643 C.2       7 UNK         0.5013 
     48 O          29.3974   30.6080    2.8678 O.2       7 UNK        -0.5193 
     49 N          30.6521   32.4874    3.0696 N.am      8 UNK        -0.4253 
     50 CA         30.8702   32.4081    4.5160 C.3       8 UNK         0.0242 
     51 CB         31.4305   33.7528    5.0097 C.3       8 UNK        -0.2000 
     52 C          31.8318   31.2654    4.8807 C.2       8 UNK         0.4948 
     53 O          32.6794   30.8990    4.0656 O.2       8 UNK        -0.5275 
     54 N          31.7381   30.7773    6.1262 N.am      9 UNK        -0.4246 
     55 CA         32.5453   29.6810    6.6883 C.3       9 UNK         0.0261 
     56 CB         32.0254   29.3498    8.0969 C.3       9 UNK        -0.1959 
     57 C          34.0724   29.9167    6.7110 C.2       9 UNK         0.5033 
     58 O          34.8261   28.9701    6.9412 O.2       9 UNK        -0.5390 
     59 N          34.5084   31.1523    6.4280 N.am      10 UNK        -0.4215 
     60 CA         35.8925   31.5353    6.1356 C.3       10 UNK         0.0240 
     61 CB         35.9807   33.0707    6.1024 C.3       10 UNK        -0.1982 
     62 C          36.4526   30.9295    4.8280 C.2       10 UNK         0.4970 
     63 O          37.6547   31.0532    4.5900 O.2       10 UNK        -0.4916 
     64 N          35.5963   30.2918    4.0151 N.am      11 UNK        -0.4279 
     65 CA         35.9304   29.5200    2.8069 C.3       11 UNK         0.1003 
     66 C          37.0196   28.4158    2.9751 C.2       11 UNK         0.5709 
     67 N          37.2369   27.8740    4.1686 N.am      11 UNK        -0.7358 
     68 O          37.6791   28.0525    2.0039 O.2       11 UNK        -0.4999 
     69 C69        34.6457   28.9377    2.1528 C.3       12 UNK        -0.0954 
     70 S70        33.7496   27.7756    3.2449 S.3       12 UNK        -0.2268 
     71 C71        32.0778   27.8109    2.5343 C.3       12 UNK         0.0203 
     72 H72        25.3609   19.3662    2.5205 H         1 UNK         0.0888 
     73 H73        25.0332   18.5924    0.9688 H         1 UNK         0.0888 
     74 H74        26.1023   17.8114    2.1376 H         1 UNK         0.0888 
     75 H75        26.7940   21.0747    2.3211 H         1 UNK         0.3017 
     76 H76        29.3221   20.8804    0.9915 H         1 UNK         0.0873 
     77 H77        27.8569   23.3317    2.1328 H         1 UNK         0.0745 
     78 H78        29.5138   23.3250    1.5865 H         1 UNK         0.0745 
     79 H79        31.2355   22.8205    4.8595 H         1 UNK         0.0705 
     80 H80        31.4903   22.8688    3.1318 H         1 UNK         0.0705 
     81 H81        32.1359   25.0985    2.6177 H         1 UNK         0.1334 
     82 H82        29.9696   28.4642    4.1494 H         1 UNK         0.1417 
     83 H83        28.8670   24.4937    5.3286 H         1 UNK         0.1562 
     84 H84        28.2176   28.1659    5.7710 H         1 UNK         0.0748 
     85 H85        28.2505   26.6792    6.6817 H         1 UNK         0.0748 
     86 H86        26.1787   28.9688    4.8117 H         1 UNK         0.0940 
     87 H87        24.8937   28.0791    4.0458 H         1 UNK         0.0940 
     88 H88        27.7184   28.4107    2.9443 H         1 UNK         0.0703 
     89 H89        27.3706   26.7382    1.5895 H         1 UNK         0.3081 
     90 H90        25.3386   24.7400    0.6035 H         1 UNK         0.0719 
     91 H91        24.6465   25.1410   -1.7729 H         1 UNK         0.0809 
     92 H92        24.6676   26.8808   -1.4858 H         1 UNK         0.0809 
     93 H93        23.5146   25.8575   -0.6402 H         1 UNK         0.0809 
     94 H94        27.2715   24.6393   -0.4532 H         1 UNK         0.2990 
     95 H95        29.2076   26.6900   -2.4428 H         1 UNK         0.0690 
     96 H96        31.1447   26.5069   -0.8850 H         1 UNK         0.0788 
     97 H97        30.0539   26.2201    0.4715 H         1 UNK         0.0788 
     98 H98        30.0512   27.7717   -0.3547 H         1 UNK         0.0788 
     99 H99        29.7988   24.2592   -0.9871 H         1 UNK         0.2993 
    100 H100       28.0462   22.0500   -3.0845 H         1 UNK         0.0949 
    101 H101       30.0855   22.4509   -4.4794 H         1 UNK         0.0767 
    102 H102       31.0829   22.5013   -3.0323 H         1 UNK         0.0767 
    103 H103       30.2637   21.0085   -3.4956 H         1 UNK         0.0767 
    104 H104       29.9295   21.5356   -1.0322 H         1 UNK         0.3013 
    105 H105       26.6718   28.9707    0.2351 H         1 UNK         0.3121 
    106 H106       25.4255   31.6100    0.4376 H         1 UNK         0.0774 
    107 H107       25.8839   31.7073   -1.9906 H         1 UNK         0.0815 
    108 H108       26.8649   30.2519   -1.9076 H         1 UNK         0.0815 
    109 H109       25.1326   30.1693   -1.5922 H         1 UNK         0.0815 
    110 H110       28.6537   30.2166    0.2339 H         1 UNK         0.2987 
    111 H111       30.0201   32.8283    0.6027 H         1 UNK         0.0949 
    112 H112       32.0819   31.4010    0.5688 H         1 UNK         0.0806 
    113 H113       31.1012   29.9538    0.4004 H         1 UNK         0.0806 
    114 H114       31.1347   31.1539   -0.8903 H         1 UNK         0.0806 
    115 H115       31.1346   33.2264    2.5798 H         1 UNK         0.3010 
    116 H116       29.9078   32.2237    4.9988 H         1 UNK         0.0829 
    117 H117       30.7535   34.5745    4.7748 H         1 UNK         0.0813 
    118 H118       31.5668   33.7507    6.0919 H         1 UNK         0.0813 
    119 H119       32.3987   33.9772    4.5594 H         1 UNK         0.0813 
    120 H120       31.0334   31.1637    6.7385 H         1 UNK         0.3038 
    121 H121       32.3800   28.8078    6.0530 H         1 UNK         0.0769 
    122 H122       32.5757   28.5137    8.5312 H         1 UNK         0.0811 
    123 H123       30.9738   29.0628    8.0755 H         1 UNK         0.0811 
    124 H124       32.1317   30.1970    8.7755 H         1 UNK         0.0811 
    125 H125       33.8060   31.8535    6.2468 H         1 UNK         0.3204 
    126 H126       36.5196   31.1709    6.9518 H         1 UNK         0.0748 
    127 H127       37.0064   33.4012    5.9318 H         1 UNK         0.0771 
    128 H128       35.3660   33.4927    5.3060 H         1 UNK         0.0771 
    129 H129       35.6561   33.5084    7.0467 H         1 UNK         0.0771 
    130 H130       34.6089   30.3001    4.2489 H         1 UNK         0.2980 
    131 H131       36.3501   30.2421    2.1047 H         1 UNK         0.0545 
    132 H132       36.6786   28.1539    4.9606 H         1 UNK         0.3459 
    133 H133       37.9439   27.1638    4.2702 H         1 UNK         0.3459 
    134 H134       33.9724   29.7534    1.8846 H         1 UNK         0.0616 
    135 H135       34.8824   28.4276    1.2174 H         1 UNK         0.0616 
    136 H136       32.1249   27.5099    1.4876 H         1 UNK         0.0634 
    137 H137       31.7002   28.8339    2.5534 H         1 UNK         0.0634 
@<TRIPOS>BOND
     1    1    2 1    
     2    1   72 1    
     3    1   73 1    
     4    1   74 1    
     5    2    3 2    
     6    2    4 am   BACKBONE|DICT|INTERRES
     7    4    5 1    
     8    4   75 1    
     9    5    6 1    
    10    5   35 1    
    11    5   76 1    
    12    6    7 1    
    13    6   77 1    
    14    6   78 1    
    15    7    8 1    
    16    8    9 1    
    17    8   79 1    
    18    8   80 1    
    19    9   10 ar   
    20    9   14 ar   
    21   10   11 ar   
    22   10   81 1    
    23   11   12 ar   
    24   11   71 1    
    25   12   13 ar   
    26   12   82 1    
    27   13   14 ar   
    28   13   15 1    
    29   14   83 1    
    30   15   16 1    
    31   15   84 1    
    32   15   85 1    
    33   16   17 1    
    34   17   18 1    
    35   17   86 1    
    36   17   87 1    
    37   18   19 1    
    38   18   37 1    
    39   18   88 1    
    40   19   20 am   BACKBONE|DICT|INTERRES
    41   19   89 1    
    42   20   21 2    
    43   20   22 1    
    44   22   23 1    
    45   22   24 1    
    46   22   90 1    
    47   23   91 1    
    48   23   92 1    
    49   23   93 1    
    50   24   25 am   BACKBONE|DICT|INTERRES
    51   24   94 1    
    52   25   26 2    
    53   25   27 1    
    54   27   28 1    
    55   27   29 1    
    56   27   95 1    
    57   28   96 1    
    58   28   97 1    
    59   28   98 1    
    60   29   30 am   BACKBONE|DICT|INTERRES
    61   29   99 1    
    62   30   31 2    
    63   30   32 1    
    64   32   33 1    
    65   32   34 1    
    66   32  100 1    
    67   33  101 1    
    68   33  102 1    
    69   33  103 1    
    70   34   35 am   BACKBONE|DICT|INTERRES
    71   34  104 1    
    72   35   36 2    
    73   37   38 2    
    74   37   39 am   BACKBONE|DICT|INTERRES
    75   39   40 1    
    76   39  105 1    
    77   40   41 1    
    78   40   42 1    
    79   40  106 1    
    80   41  107 1    
    81   41  108 1    
    82   41  109 1    
    83   42   43 2    
    84   42   44 am   BACKBONE|DICT|INTERRES
    85   44   45 1    
    86   44  110 1    
    87   45   46 1    
    88   45   47 1    
    89   45  111 1    
    90   46  112 1    
    91   46  113 1    
    92   46  114 1    
    93   47   48 2    
    94   47   49 am   BACKBONE|DICT|INTERRES
    95   49   50 1    
    96   49  115 1    
    97   50   51 1    
    98   50   52 1    
    99   50  116 1    
   100   51  117 1    
   101   51  118 1    
   102   51  119 1    
   103   52   53 2    
   104   52   54 am   BACKBONE|DICT|INTERRES
   105   54   55 1    
   106   54  120 1    
   107   55   56 1    
   108   55   57 1    
   109   55  121 1    
   110   56  122 1    
   111   56  123 1    
   112   56  124 1    
   113   57   58 2    
   114   57   59 am   BACKBONE|DICT|INTERRES
   115   59   60 1    
   116   59  125 1    
   117   60   61 1    
   118   60   62 1    
   119   60  126 1    
   120   61  127 1    
   121   61  128 1    
   122   61  129 1    
   123   62   63 2    
   124   62   64 am   BACKBONE|DICT|INTERRES
   125   64   65 1    
   126   64  130 1    
   127   65   66 1    
   128   65   69 1    
   129   65  131 1    
   130   66   67 am   BACKBONE|DICT|INTERRES
   131   66   68 2    
   132   67  132 1    
   133   67  133 1    
   134   69   70 1    
   135   69  134 1    
   136   69  135 1    
   137   70   71 1    
   138   71  136 1    
   139   71  137 1    
@<TRIPOS>SUBSTRUCTURE
     1 UNK         1 GROUP             0       ****    0 ROOT    
