@<TRIPOS>MOLECULE
3R136
137   139    1
SMALL
USER_CHARGES


@<TRIPOS>ATOM
      1 CA         27.2905   23.9395    6.0802 C.3       0 UNK        -0.1979 
      2 C          27.7851   24.7657    4.9034 C.2       0 UNK         0.4864 
      3 O          28.0221   25.9638    5.0610 O.2       0 UNK        -0.5359 
      4 N          27.9292   24.1376    3.7273 N.am      1 UNK        -0.4318 
      5 CA         28.4368   24.6750    2.4505 C.3       1 UNK         0.0824 
      6 C6         29.8725   25.2497    2.5222 C.3       12 UNK        -0.0944 
      7 S7         31.1003   24.0379    3.1227 S.3       12 UNK        -0.2672 
      8 C8         32.2731   23.9267    1.7328 C.3       12 UNK         0.0333 
      9 C9         32.7914   25.2903    1.2943 C.ar      12 UNK        -0.0807 
     10 C10        33.4786   26.1150    2.1903 C.ar      12 UNK        -0.0894 
     11 C11        33.9306   27.3775    1.7926 C.ar      12 UNK        -0.0804 
     12 C12        33.6865   27.8124    0.4851 C.ar      12 UNK        -0.0824 
     13 C13        32.9917   26.9997   -0.4165 C.ar      12 UNK        -0.0762 
     14 C14        32.5587   25.7357   -0.0094 C.ar      12 UNK        -0.0782 
     15 C15        32.7013   27.4867   -1.8290 C.3       12 UNK         0.0230 
     16 S16        31.2314   28.5610   -1.8832 S.3       12 UNK        -0.2608 
     17 C17        29.8780   27.4039   -1.4626 C.3       12 UNK        -0.0989 
     18 CA         28.5682   27.6629   -2.2520 C.3       5 UNK         0.0716 
     19 N          27.6563   26.5282   -2.1096 N.am      5 UNK        -0.4135 
     20 C          26.7844   26.1208   -3.0389 C.2       4 UNK         0.5031 
     21 O          26.6965   26.6189   -4.1623 O.2       4 UNK        -0.5229 
     22 CA         25.8559   24.9584   -2.6608 C.3       4 UNK         0.0329 
     23 CB         26.6297   23.6287   -2.6406 C.3       4 UNK        -0.2001 
     24 N          25.2216   25.1702   -1.3569 N.am      4 UNK        -0.4303 
     25 C          23.8979   25.1807   -1.1399 C.2       3 UNK         0.5044 
     26 O          23.0574   25.0474   -2.0307 O.2       3 UNK        -0.5152 
     27 CA         23.4078   25.3362    0.3144 C.3       3 UNK         0.0319 
     28 CB         22.9804   23.9727    0.8821 C.3       3 UNK        -0.2001 
     29 N          24.4079   25.9254    1.2052 N.am      3 UNK        -0.4354 
     30 C          24.7437   27.2222    1.2246 C.2       2 UNK         0.4964 
     31 O          24.1419   28.0848    0.5844 O.2       2 UNK        -0.5047 
     32 CA         25.9408   27.6332    2.1069 C.3       2 UNK         0.0288 
     33 CB         25.4527   28.3980    3.3487 C.3       2 UNK        -0.2113 
     34 N          26.8159   26.5372    2.5446 N.am      2 UNK        -0.4145 
     35 C          27.4973   25.6881    1.7632 C.2       1 UNK         0.5006 
     36 O          27.3884   25.6537    0.5356 O.2       1 UNK        -0.5103 
     37 C          27.8544   28.9481   -1.7859 C.2       5 UNK         0.5055 
     38 O          26.8846   28.8817   -1.0287 O.2       5 UNK        -0.5220 
     39 N          28.3663   30.1054   -2.2233 N.am      6 UNK        -0.4450 
     40 CA         27.9544   31.4225   -1.7296 C.3       6 UNK         0.0367 
     41 CB         28.4620   32.5064   -2.6943 C.3       6 UNK        -0.1929 
     42 C          28.4505   31.7003   -0.2967 C.2       6 UNK         0.5070 
     43 O          27.8370   32.5029    0.4073 O.2       6 UNK        -0.5237 
     44 N          29.5467   31.0437    0.1043 N.am      7 UNK        -0.4739 
     45 CA         30.1120   31.0958    1.4497 C.3       7 UNK         0.0276 
     46 CB         31.6447   31.0368    1.3420 C.3       7 UNK        -0.1927 
     47 C          29.6025   29.9142    2.2862 C.2       7 UNK         0.5013 
     48 O          29.3436   28.8393    1.7422 O.2       7 UNK        -0.5193 
     49 N          29.5193   30.1246    3.6035 N.am      8 UNK        -0.4253 
     50 CA         29.3031   29.0653    4.5881 C.3       8 UNK         0.0242 
     51 CB         28.6032   29.6656    5.8192 C.3       8 UNK        -0.2000 
     52 C          30.6458   28.4324    4.9865 C.2       8 UNK         0.4948 
     53 O          31.6999   29.0222    4.7335 O.2       8 UNK        -0.5275 
     54 N          30.5847   27.2734    5.6554 N.am      9 UNK        -0.4246 
     55 CA         31.7093   26.4636    6.1557 C.3       9 UNK         0.0261 
     56 CB         31.1527   25.1113    6.6431 C.3       9 UNK        -0.1959 
     57 C          32.5975   27.1272    7.2399 C.2       9 UNK         0.5033 
     58 O          33.0254   26.4517    8.1781 O.2       9 UNK        -0.5390 
     59 N          32.8633   28.4297    7.1088 N.am      10 UNK        -0.4215 
     60 CA         33.6935   29.2284    8.0097 C.3       10 UNK         0.0240 
     61 CB         33.1855   30.6798    7.9921 C.3       10 UNK        -0.1982 
     62 C          35.1869   29.1804    7.6450 C.2       10 UNK         0.4970 
     63 O          36.0167   29.4558    8.5130 O.2       10 UNK        -0.4916 
     64 N          35.5081   28.8663    6.3818 N.am      11 UNK        -0.4279 
     65 CA         36.8844   28.7681    5.8755 C.3       11 UNK         0.1003 
     66 C          37.6620   27.5321    6.4142 C.2       11 UNK         0.5709 
     67 N          38.9867   27.5607    6.3503 N.am      11 UNK        -0.7358 
     68 O          37.0844   26.5453    6.8680 O.2       11 UNK        -0.4999 
     69 C69        36.9402   28.9007    4.3287 C.3       12 UNK        -0.0954 
     70 S70        36.1874   27.5199    3.3991 S.3       12 UNK        -0.2268 
     71 C71        34.6546   28.2816    2.7815 C.3       12 UNK         0.0203 
     72 H72        28.0242   23.9612    6.8855 H         1 UNK         0.0888 
     73 H73        26.3557   24.3511    6.4596 H         1 UNK         0.0888 
     74 H74        27.1182   22.8990    5.8060 H         1 UNK         0.0888 
     75 H75        27.6923   23.1558    3.6889 H         1 UNK         0.3017 
     76 H76        28.4733   23.8146    1.7799 H         1 UNK         0.0873 
     77 H77        29.9103   26.1240    3.1715 H         1 UNK         0.0745 
     78 H78        30.1701   25.6099    1.5368 H         1 UNK         0.0745 
     79 H79        31.7839   23.4096    0.9059 H         1 UNK         0.0705 
     80 H80        33.1168   23.3029    2.0307 H         1 UNK         0.0705 
     81 H81        33.6538   25.7764    3.2021 H         1 UNK         0.1334 
     82 H82        34.0220   28.7909    0.1697 H         1 UNK         0.1417 
     83 H83        32.0240   25.1033   -0.7047 H         1 UNK         0.1562 
     84 H84        32.5657   26.6456   -2.5106 H         1 UNK         0.0748 
     85 H85        33.5592   28.0459   -2.2054 H         1 UNK         0.0748 
     86 H86        29.7036   27.4286   -0.3857 H         1 UNK         0.0940 
     87 H87        30.2222   26.3925   -1.6809 H         1 UNK         0.0940 
     88 H88        28.8216   27.7773   -3.3084 H         1 UNK         0.0703 
     89 H89        27.6062   26.1279   -1.1751 H         1 UNK         0.3081 
     90 H90        25.0992   24.8905   -3.4452 H         1 UNK         0.0719 
     91 H91        27.1306   23.4527   -3.5935 H         1 UNK         0.0809 
     92 H92        27.3925   23.6138   -1.8610 H         1 UNK         0.0809 
     93 H93        25.9596   22.7866   -2.4670 H         1 UNK         0.0809 
     94 H94        25.8447   25.3303   -0.5710 H         1 UNK         0.2990 
     95 H95        22.5314   25.9877    0.2976 H         1 UNK         0.0690 
     96 H96        22.5685   24.0719    1.8866 H         1 UNK         0.0788 
     97 H97        23.8163   23.2733    0.9276 H         1 UNK         0.0788 
     98 H98        22.2079   23.5164    0.2613 H         1 UNK         0.0788 
     99 H99        24.9371   25.2892    1.7828 H         1 UNK         0.2993 
    100 H100       26.5551   28.3098    1.5100 H         1 UNK         0.0949 
    101 H101       24.8169   29.2387    3.0674 H         1 UNK         0.0767 
    102 H102       24.8736   27.7568    4.0143 H         1 UNK         0.0767 
    103 H103       26.2878   28.8060    3.9167 H         1 UNK         0.0767 
    104 H104       27.0166   26.4843    3.5398 H         1 UNK         0.3013 
    105 H105       29.1706   30.0781   -2.8350 H         1 UNK         0.3121 
    106 H106       26.8628   31.4610   -1.7146 H         1 UNK         0.0774 
    107 H107       28.1467   33.4978   -2.3658 H         1 UNK         0.0815 
    108 H108       29.5510   32.5153   -2.7561 H         1 UNK         0.0815 
    109 H109       28.0680   32.3598   -3.7001 H         1 UNK         0.0815 
    110 H110       29.9421   30.3469   -0.5119 H         1 UNK         0.2987 
    111 H111       29.8292   32.0309    1.9387 H         1 UNK         0.0949 
    112 H112       32.1101   31.0698    2.3284 H         1 UNK         0.0806 
    113 H113       32.0365   31.8763    0.7677 H         1 UNK         0.0806 
    114 H114       31.9747   30.1163    0.8598 H         1 UNK         0.0806 
    115 H115       29.8127   31.0178    3.9711 H         1 UNK         0.3010 
    116 H116       28.6659   28.2932    4.1551 H         1 UNK         0.0829 
    117 H117       29.2323   30.3987    6.3260 H         1 UNK         0.0813 
    118 H118       27.6700   30.1578    5.5452 H         1 UNK         0.0813 
    119 H119       28.3551   28.8899    6.5450 H         1 UNK         0.0813 
    120 H120       29.6633   26.8593    5.7671 H         1 UNK         0.3038 
    121 H121       32.3616   26.2663    5.3031 H         1 UNK         0.0769 
    122 H122       31.9577   24.4233    6.9047 H         1 UNK         0.0811 
    123 H123       30.5570   24.6205    5.8766 H         1 UNK         0.0811 
    124 H124       30.5233   25.2323    7.5255 H         1 UNK         0.0811 
    125 H125       32.4858   28.8907    6.2797 H         1 UNK         0.3204 
    126 H126       33.5899   28.8445    9.0269 H         1 UNK         0.0748 
    127 H127       33.7668   31.3066    8.6699 H         1 UNK         0.0771 
    128 H128       33.2562   31.1207    6.9967 H         1 UNK         0.0771 
    129 H129       32.1445   30.7384    8.3109 H         1 UNK         0.0771 
    130 H130       34.7756   28.6113    5.7388 H         1 UNK         0.2980 
    131 H131       37.4102   29.6393    6.2719 H         1 UNK         0.0545 
    132 H132       39.4747   28.3583    5.9737 H         1 UNK         0.3459 
    133 H133       39.5094   26.7667    6.6855 H         1 UNK         0.3459 
    134 H134       36.4720   29.8386    4.0264 H         1 UNK         0.0616 
    135 H135       37.9783   28.9844    4.0030 H         1 UNK         0.0616 
    136 H136       33.9962   28.4955    3.6224 H         1 UNK         0.0634 
    137 H137       34.8920   29.2403    2.3180 H         1 UNK         0.0634 
@<TRIPOS>BOND
     1    1    2 1    
     2    1   72 1    
     3    1   73 1    
     4    1   74 1    
     5    2    3 2    
     6    2    4 am   BACKBONE|DICT|INTERRES
     7    4    5 1    
     8    4   75 1    
     9    5    6 1    
    10    5   35 1    
    11    5   76 1    
    12    6    7 1    
    13    6   77 1    
    14    6   78 1    
    15    7    8 1    
    16    8    9 1    
    17    8   79 1    
    18    8   80 1    
    19    9   10 ar   
    20    9   14 ar   
    21   10   11 ar   
    22   10   81 1    
    23   11   12 ar   
    24   11   71 1    
    25   12   13 ar   
    26   12   82 1    
    27   13   14 ar   
    28   13   15 1    
    29   14   83 1    
    30   15   16 1    
    31   15   84 1    
    32   15   85 1    
    33   16   17 1    
    34   17   18 1    
    35   17   86 1    
    36   17   87 1    
    37   18   19 1    
    38   18   37 1    
    39   18   88 1    
    40   19   20 am   BACKBONE|DICT|INTERRES
    41   19   89 1    
    42   20   21 2    
    43   20   22 1    
    44   22   23 1    
    45   22   24 1    
    46   22   90 1    
    47   23   91 1    
    48   23   92 1    
    49   23   93 1    
    50   24   25 am   BACKBONE|DICT|INTERRES
    51   24   94 1    
    52   25   26 2    
    53   25   27 1    
    54   27   28 1    
    55   27   29 1    
    56   27   95 1    
    57   28   96 1    
    58   28   97 1    
    59   28   98 1    
    60   29   30 am   BACKBONE|DICT|INTERRES
    61   29   99 1    
    62   30   31 2    
    63   30   32 1    
    64   32   33 1    
    65   32   34 1    
    66   32  100 1    
    67   33  101 1    
    68   33  102 1    
    69   33  103 1    
    70   34   35 am   BACKBONE|DICT|INTERRES
    71   34  104 1    
    72   35   36 2    
    73   37   38 2    
    74   37   39 am   BACKBONE|DICT|INTERRES
    75   39   40 1    
    76   39  105 1    
    77   40   41 1    
    78   40   42 1    
    79   40  106 1    
    80   41  107 1    
    81   41  108 1    
    82   41  109 1    
    83   42   43 2    
    84   42   44 am   BACKBONE|DICT|INTERRES
    85   44   45 1    
    86   44  110 1    
    87   45   46 1    
    88   45   47 1    
    89   45  111 1    
    90   46  112 1    
    91   46  113 1    
    92   46  114 1    
    93   47   48 2    
    94   47   49 am   BACKBONE|DICT|INTERRES
    95   49   50 1    
    96   49  115 1    
    97   50   51 1    
    98   50   52 1    
    99   50  116 1    
   100   51  117 1    
   101   51  118 1    
   102   51  119 1    
   103   52   53 2    
   104   52   54 am   BACKBONE|DICT|INTERRES
   105   54   55 1    
   106   54  120 1    
   107   55   56 1    
   108   55   57 1    
   109   55  121 1    
   110   56  122 1    
   111   56  123 1    
   112   56  124 1    
   113   57   58 2    
   114   57   59 am   BACKBONE|DICT|INTERRES
   115   59   60 1    
   116   59  125 1    
   117   60   61 1    
   118   60   62 1    
   119   60  126 1    
   120   61  127 1    
   121   61  128 1    
   122   61  129 1    
   123   62   63 2    
   124   62   64 am   BACKBONE|DICT|INTERRES
   125   64   65 1    
   126   64  130 1    
   127   65   66 1    
   128   65   69 1    
   129   65  131 1    
   130   66   67 am   BACKBONE|DICT|INTERRES
   131   66   68 2    
   132   67  132 1    
   133   67  133 1    
   134   69   70 1    
   135   69  134 1    
   136   69  135 1    
   137   70   71 1    
   138   71  136 1    
   139   71  137 1    
@<TRIPOS>SUBSTRUCTURE
     1 UNK         1 GROUP             0       ****    0 ROOT    
