@<TRIPOS>MOLECULE
3R136
137   139    1
SMALL
USER_CHARGES


@<TRIPOS>ATOM
      1 CA         26.5709   18.6015    2.5722 C.3       0 UNK        -0.1979 
      2 C          26.5108   19.8196    1.6624 C.2       0 UNK         0.4864 
      3 O          25.5229   20.0029    0.9501 O.2       0 UNK        -0.5359 
      4 N          27.5603   20.6525    1.6803 N.am      1 UNK        -0.4318 
      5 CA         27.6726   21.8818    0.8849 C.3       1 UNK         0.0824 
      6 C6         29.1381   22.3868    0.8091 C.3       12 UNK        -0.0944 
      7 S7         29.8929   22.7056    2.4470 S.3       12 UNK        -0.2672 
      8 C8         31.5870   22.0823    2.2127 C.3       12 UNK         0.0333 
      9 C9         32.4497   23.0968    1.4780 C.ar      12 UNK        -0.0807 
     10 C10        33.1379   24.0779    2.1974 C.ar      12 UNK        -0.0894 
     11 C11        33.9152   25.0309    1.5329 C.ar      12 UNK        -0.0804 
     12 C12        34.0207   24.9832    0.1403 C.ar      12 UNK        -0.0824 
     13 C13        33.3235   24.0170   -0.5918 C.ar      12 UNK        -0.0762 
     14 C14        32.5482   23.0686    0.0838 C.ar      12 UNK        -0.0782 
     15 C15        33.3589   24.0327   -2.1157 C.3       12 UNK         0.0230 
     16 S16        32.6694   25.5724   -2.8197 S.3       12 UNK        -0.2608 
     17 C17        31.1920   25.8307   -1.7781 C.3       12 UNK        -0.0989 
     18 CA         30.2144   26.9190   -2.2827 C.3       5 UNK         0.0716 
     19 N          28.9644   26.8220   -1.5290 N.am      5 UNK        -0.4135 
     20 C          27.8378   27.5101   -1.7474 C.2       4 UNK         0.5031 
     21 O          27.6463   28.2213   -2.7340 O.2       4 UNK        -0.5229 
     22 CA         26.7483   27.4034   -0.6630 C.3       4 UNK         0.0329 
     23 CB         25.5458   26.5983   -1.1813 C.3       4 UNK        -0.2001 
     24 N          27.2085   26.8224    0.6084 N.am      4 UNK        -0.4303 
     25 C          28.0887   27.3912    1.4504 C.2       3 UNK         0.5044 
     26 O          28.6936   28.4281    1.1784 O.2       3 UNK        -0.5152 
     27 CA         28.4040   26.6805    2.7852 C.3       3 UNK         0.0319 
     28 CB         28.3989   27.6666    3.9692 C.3       3 UNK        -0.2001 
     29 N          27.5710   25.5063    3.0725 N.am      3 UNK        -0.4354 
     30 C          26.2452   25.4551    3.2847 C.2       2 UNK         0.4964 
     31 O          25.5241   26.4501    3.3650 O.2       2 UNK        -0.5047 
     32 CA         25.6185   24.0443    3.3758 C.3       2 UNK         0.0288 
     33 CB         24.1440   24.0255    2.9188 C.3       2 UNK        -0.2113 
     34 N          26.3872   23.0108    2.6619 N.am      2 UNK        -0.4145 
     35 C          26.7322   23.0087    1.3619 C.2       1 UNK         0.5006 
     36 O          26.3962   23.8848    0.5638 O.2       1 UNK        -0.5103 
     37 C          30.8358   28.3376   -2.2124 C.2       5 UNK         0.5055 
     38 O          31.4929   28.7539   -3.1687 O.2       5 UNK        -0.5220 
     39 N          30.6054   29.0621   -1.1078 N.am      6 UNK        -0.4450 
     40 CA         31.0685   30.4289   -0.8933 C.3       6 UNK         0.0367 
     41 CB         32.4343   30.4139   -0.1749 C.3       6 UNK        -0.1929 
     42 C          29.9654   31.1837   -0.1417 C.2       6 UNK         0.5070 
     43 O          28.9705   31.5665   -0.7589 O.2       6 UNK        -0.5237 
     44 N          30.1452   31.3694    1.1681 N.am      7 UNK        -0.4739 
     45 CA         29.1807   31.9537    2.0907 C.3       7 UNK         0.0276 
     46 CB         29.3227   33.4866    2.0912 C.3       7 UNK        -0.1927 
     47 C          29.4538   31.3795    3.4829 C.2       7 UNK         0.5013 
     48 O          30.5677   30.9103    3.7407 O.2       7 UNK        -0.5193 
     49 N          28.4603   31.4740    4.3770 N.am      8 UNK        -0.4253 
     50 CA         28.5263   31.0005    5.7669 C.3       8 UNK         0.0242 
     51 CB         27.1628   31.2105    6.4434 C.3       8 UNK        -0.2000 
     52 C          29.6496   31.6393    6.6047 C.2       8 UNK         0.4948 
     53 O          30.1703   30.9882    7.5096 O.2       8 UNK        -0.5275 
     54 N          30.0375   32.8754    6.2633 N.am      9 UNK        -0.4246 
     55 CA         31.1780   33.5808    6.8519 C.3       9 UNK         0.0261 
     56 CB         31.1183   35.0605    6.4378 C.3       9 UNK        -0.1959 
     57 C          32.5458   32.9748    6.4772 C.2       9 UNK         0.5033 
     58 O          33.5109   33.1986    7.2096 O.2       9 UNK        -0.5390 
     59 N          32.6156   32.2445    5.3549 N.am      10 UNK        -0.4215 
     60 CA         33.8327   31.6158    4.8422 C.3       10 UNK         0.0240 
     61 CB         33.9577   31.9020    3.3348 C.3       10 UNK        -0.1982 
     62 C          33.8387   30.1035    5.1040 C.2       10 UNK         0.4970 
     63 O          34.8435   29.5860    5.5933 O.2       10 UNK        -0.4916 
     64 N          32.7354   29.4289    4.7586 N.am      11 UNK        -0.4279 
     65 CA         32.6055   27.9625    4.7575 C.3       11 UNK         0.1003 
     66 C          31.5806   27.4184    5.7913 C.2       11 UNK         0.5709 
     67 N          30.9800   28.2381    6.6438 N.am      11 UNK        -0.7358 
     68 O          31.3412   26.2147    5.8438 O.2       11 UNK        -0.4999 
     69 C69        32.3233   27.4333    3.3247 C.3       12 UNK        -0.0954 
     70 S70        33.7339   27.7131    2.2009 S.3       12 UNK        -0.2268 
     71 C71        34.6242   26.1281    2.3118 C.3       12 UNK         0.0203 
     72 H72        27.4989   18.5634    3.1425 H         1 UNK         0.0888 
     73 H73        26.4987   17.6886    1.9817 H         1 UNK         0.0888 
     74 H74        25.7401   18.6183    3.2771 H         1 UNK         0.0888 
     75 H75        28.3486   20.4523    2.2805 H         1 UNK         0.3017 
     76 H76        27.3597   21.6386   -0.1331 H         1 UNK         0.0873 
     77 H77        29.2076   23.2971    0.2100 H         1 UNK         0.0745 
     78 H78        29.7351   21.6444    0.2782 H         1 UNK         0.0745 
     79 H79        32.0198   21.8743    3.1925 H         1 UNK         0.0705 
     80 H80        31.5711   21.1287    1.6828 H         1 UNK         0.0705 
     81 H81        33.0504   24.1112    3.2750 H         1 UNK         0.1334 
     82 H82        34.6082   25.7284   -0.3790 H         1 UNK         0.1417 
     83 H83        32.0031   22.3211   -0.4759 H         1 UNK         0.1562 
     84 H84        32.8037   23.1864   -2.5232 H         1 UNK         0.0748 
     85 H85        34.3890   23.9157   -2.4546 H         1 UNK         0.0748 
     86 H86        31.5124   26.0628   -0.7601 H         1 UNK         0.0940 
     87 H87        30.6734   24.8718   -1.7193 H         1 UNK         0.0940 
     88 H88        29.9761   26.7158   -3.3288 H         1 UNK         0.0703 
     89 H89        28.9920   26.2538   -0.6965 H         1 UNK         0.3081 
     90 H90        26.4107   28.4203   -0.4520 H         1 UNK         0.0719 
     91 H91        25.8275   25.5786   -1.4460 H         1 UNK         0.0809 
     92 H92        24.7513   26.5444   -0.4366 H         1 UNK         0.0809 
     93 H93        25.1221   27.0601   -2.0742 H         1 UNK         0.0809 
     94 H94        26.7941   25.9329    0.8659 H         1 UNK         0.2990 
     95 H95        29.4204   26.2969    2.6842 H         1 UNK         0.0690 
     96 H96        28.5966   27.1581    4.9126 H         1 UNK         0.0788 
     97 H97        27.4466   28.1896    4.0611 H         1 UNK         0.0788 
     98 H98        29.1732   28.4227    3.8425 H         1 UNK         0.0788 
     99 H99        28.0606   24.6222    3.0303 H         1 UNK         0.2993 
    100 H100       25.6428   23.7736    4.4325 H         1 UNK         0.0949 
    101 H101       23.5323   24.6852    3.5355 H         1 UNK         0.0767 
    102 H102       24.0372   24.3552    1.8847 H         1 UNK         0.0767 
    103 H103       23.7179   23.0252    2.9968 H         1 UNK         0.0767 
    104 H104       26.7389   22.2544    3.2324 H         1 UNK         0.3013 
    105 H105       29.9880   28.6981   -0.3867 H         1 UNK         0.3121 
    106 H106       31.1908   30.9366   -1.8525 H         1 UNK         0.0774 
    107 H107       33.1944   29.9322   -0.7901 H         1 UNK         0.0815 
    108 H108       32.3920   29.8756    0.7715 H         1 UNK         0.0815 
    109 H109       32.7824   31.4268    0.0314 H         1 UNK         0.0815 
    110 H110       30.9525   30.9639    1.6241 H         1 UNK         0.2987 
    111 H111       28.1706   31.6670    1.7889 H         1 UNK         0.0949 
    112 H112       30.3216   33.7982    2.4000 H         1 UNK         0.0806 
    113 H113       29.1366   33.9013    1.1003 H         1 UNK         0.0806 
    114 H114       28.6082   33.9506    2.7720 H         1 UNK         0.0806 
    115 H115       27.5848   31.8852    4.0854 H         1 UNK         0.3010 
    116 H116       28.7265   29.9283    5.7376 H         1 UNK         0.0829 
    117 H117       26.3735   30.6677    5.9228 H         1 UNK         0.0813 
    118 H118       27.1775   30.8468    7.4720 H         1 UNK         0.0813 
    119 H119       26.8841   32.2646    6.4745 H         1 UNK         0.0813 
    120 H120       29.5443   33.3437    5.5174 H         1 UNK         0.3038 
    121 H121       31.0845   33.5256    7.9388 H         1 UNK         0.0769 
    122 H122       31.1930   35.1814    5.3563 H         1 UNK         0.0811 
    123 H123       31.9384   35.6241    6.8854 H         1 UNK         0.0811 
    124 H124       30.1902   35.5285    6.7664 H         1 UNK         0.0811 
    125 H125       31.7634   32.0576    4.8376 H         1 UNK         0.3204 
    126 H126       34.7122   32.0395    5.3319 H         1 UNK         0.0748 
    127 H127       34.0343   32.9721    3.1418 H         1 UNK         0.0771 
    128 H128       34.8514   31.4328    2.9209 H         1 UNK         0.0771 
    129 H129       33.1029   31.5231    2.7740 H         1 UNK         0.0771 
    130 H130       31.9415   29.9370    4.3750 H         1 UNK         0.2980 
    131 H131       33.5497   27.5190    5.0773 H         1 UNK         0.0545 
    132 H132       30.3365   27.8504    7.3140 H         1 UNK         0.3459 
    133 H133       31.1697   29.2298    6.6581 H         1 UNK         0.3459 
    134 H134       32.0843   26.3701    3.3311 H         1 UNK         0.0616 
    135 H135       31.4497   27.9325    2.9023 H         1 UNK         0.0616 
    136 H136       34.7449   25.8493    3.3598 H         1 UNK         0.0634 
    137 H137       35.6305   26.2626    1.9127 H         1 UNK         0.0634 
@<TRIPOS>BOND
     1    1    2 1    
     2    1   72 1    
     3    1   73 1    
     4    1   74 1    
     5    2    3 2    
     6    2    4 am   BACKBONE|DICT|INTERRES
     7    4    5 1    
     8    4   75 1    
     9    5    6 1    
    10    5   35 1    
    11    5   76 1    
    12    6    7 1    
    13    6   77 1    
    14    6   78 1    
    15    7    8 1    
    16    8    9 1    
    17    8   79 1    
    18    8   80 1    
    19    9   10 ar   
    20    9   14 ar   
    21   10   11 ar   
    22   10   81 1    
    23   11   12 ar   
    24   11   71 1    
    25   12   13 ar   
    26   12   82 1    
    27   13   14 ar   
    28   13   15 1    
    29   14   83 1    
    30   15   16 1    
    31   15   84 1    
    32   15   85 1    
    33   16   17 1    
    34   17   18 1    
    35   17   86 1    
    36   17   87 1    
    37   18   19 1    
    38   18   37 1    
    39   18   88 1    
    40   19   20 am   BACKBONE|DICT|INTERRES
    41   19   89 1    
    42   20   21 2    
    43   20   22 1    
    44   22   23 1    
    45   22   24 1    
    46   22   90 1    
    47   23   91 1    
    48   23   92 1    
    49   23   93 1    
    50   24   25 am   BACKBONE|DICT|INTERRES
    51   24   94 1    
    52   25   26 2    
    53   25   27 1    
    54   27   28 1    
    55   27   29 1    
    56   27   95 1    
    57   28   96 1    
    58   28   97 1    
    59   28   98 1    
    60   29   30 am   BACKBONE|DICT|INTERRES
    61   29   99 1    
    62   30   31 2    
    63   30   32 1    
    64   32   33 1    
    65   32   34 1    
    66   32  100 1    
    67   33  101 1    
    68   33  102 1    
    69   33  103 1    
    70   34   35 am   BACKBONE|DICT|INTERRES
    71   34  104 1    
    72   35   36 2    
    73   37   38 2    
    74   37   39 am   BACKBONE|DICT|INTERRES
    75   39   40 1    
    76   39  105 1    
    77   40   41 1    
    78   40   42 1    
    79   40  106 1    
    80   41  107 1    
    81   41  108 1    
    82   41  109 1    
    83   42   43 2    
    84   42   44 am   BACKBONE|DICT|INTERRES
    85   44   45 1    
    86   44  110 1    
    87   45   46 1    
    88   45   47 1    
    89   45  111 1    
    90   46  112 1    
    91   46  113 1    
    92   46  114 1    
    93   47   48 2    
    94   47   49 am   BACKBONE|DICT|INTERRES
    95   49   50 1    
    96   49  115 1    
    97   50   51 1    
    98   50   52 1    
    99   50  116 1    
   100   51  117 1    
   101   51  118 1    
   102   51  119 1    
   103   52   53 2    
   104   52   54 am   BACKBONE|DICT|INTERRES
   105   54   55 1    
   106   54  120 1    
   107   55   56 1    
   108   55   57 1    
   109   55  121 1    
   110   56  122 1    
   111   56  123 1    
   112   56  124 1    
   113   57   58 2    
   114   57   59 am   BACKBONE|DICT|INTERRES
   115   59   60 1    
   116   59  125 1    
   117   60   61 1    
   118   60   62 1    
   119   60  126 1    
   120   61  127 1    
   121   61  128 1    
   122   61  129 1    
   123   62   63 2    
   124   62   64 am   BACKBONE|DICT|INTERRES
   125   64   65 1    
   126   64  130 1    
   127   65   66 1    
   128   65   69 1    
   129   65  131 1    
   130   66   67 am   BACKBONE|DICT|INTERRES
   131   66   68 2    
   132   67  132 1    
   133   67  133 1    
   134   69   70 1    
   135   69  134 1    
   136   69  135 1    
   137   70   71 1    
   138   71  136 1    
   139   71  137 1    
@<TRIPOS>SUBSTRUCTURE
     1 UNK         1 GROUP             0       ****    0 ROOT    
