@<TRIPOS>MOLECULE
3R136
137   139    1
SMALL
USER_CHARGES


@<TRIPOS>ATOM
      1 CA         32.0045   24.5411   -1.5581 C.3       0 UNK        -0.1979 
      2 C          30.7487   24.1474   -0.7970 C.2       0 UNK         0.4864 
      3 O          29.9159   25.0088   -0.5082 O.2       0 UNK        -0.5359 
      4 N          30.5961   22.8582   -0.4672 N.am      1 UNK        -0.4318 
      5 CA         29.4573   22.3301    0.2894 C.3       1 UNK         0.0824 
      6 C6         29.6241   20.8372    0.6650 C.3       12 UNK        -0.0944 
      7 S7         31.1043   20.5178    1.6838 S.3       12 UNK        -0.2672 
      8 C8         30.4067   20.4751    3.3671 C.3       12 UNK         0.0333 
      9 C9         30.1378   21.8764    3.8958 C.ar      12 UNK        -0.0807 
     10 C10        31.1645   22.5983    4.5119 C.ar      12 UNK        -0.0894 
     11 C11        30.9392   23.8955    4.9825 C.ar      12 UNK        -0.0804 
     12 C12        29.6691   24.4620    4.8421 C.ar      12 UNK        -0.0824 
     13 C13        28.6377   23.7593    4.2130 C.ar      12 UNK        -0.0762 
     14 C14        28.8723   22.4567    3.7615 C.ar      12 UNK        -0.0782 
     15 C15        27.2729   24.4059    4.0175 C.3       12 UNK         0.0230 
     16 S16        27.2725   25.5758    2.6156 S.3       12 UNK        -0.2608 
     17 C17        27.8567   27.1223    3.3890 C.3       12 UNK        -0.0989 
     18 CA         29.2712   27.5359    2.9017 C.3       5 UNK         0.0716 
     19 N          29.2453   27.8867    1.4743 N.am      5 UNK        -0.4135 
     20 C          30.2915   28.2076    0.6990 C.2       4 UNK         0.5031 
     21 O          31.4576   28.2410    1.0907 O.2       4 UNK        -0.5229 
     22 CA         29.9745   28.5201   -0.7714 C.3       4 UNK         0.0329 
     23 CB         31.2361   28.6252   -1.6536 C.3       4 UNK        -0.2001 
     24 N          29.1035   27.4812   -1.3125 N.am      4 UNK        -0.4303 
     25 C          28.1458   27.6614   -2.2280 C.2       3 UNK         0.5044 
     26 O          27.8215   28.7641   -2.6701 O.2       3 UNK        -0.5152 
     27 CA         27.4306   26.4065   -2.7492 C.3       3 UNK         0.0319 
     28 CB         28.2461   25.7446   -3.8733 C.3       3 UNK        -0.2001 
     29 N          27.1786   25.4274   -1.6875 N.am      3 UNK        -0.4354 
     30 C          26.0251   24.7621   -1.5248 C.2       2 UNK         0.4964 
     31 O          25.0461   24.9145   -2.2578 O.2       2 UNK        -0.5047 
     32 CA         25.9253   23.7764   -0.3402 C.3       2 UNK         0.0288 
     33 CB         24.9875   22.5834   -0.6282 C.3       2 UNK        -0.2113 
     34 N          27.2242   23.3197    0.1702 N.am      2 UNK        -0.4145 
     35 C          28.1314   22.5609   -0.4628 C.2       1 UNK         0.5006 
     36 O          27.9781   22.0740   -1.5854 O.2       1 UNK        -0.5103 
     37 C          29.8413   28.6592    3.8000 C.2       5 UNK         0.5055 
     38 O          30.0474   29.7855    3.3425 O.2       5 UNK        -0.5220 
     39 N          30.0612   28.3411    5.0859 N.am      6 UNK        -0.4450 
     40 CA         30.5981   29.2309    6.1253 C.3       6 UNK         0.0367 
     41 CB         30.5965   28.5027    7.4788 C.3       6 UNK        -0.1929 
     42 C          29.8823   30.5875    6.2404 C.2       6 UNK         0.5070 
     43 O          30.5466   31.6214    6.2992 O.2       6 UNK        -0.5237 
     44 N          28.5444   30.5590    6.2215 N.am      7 UNK        -0.4739 
     45 CA         27.6956   31.7524    6.2749 C.3       7 UNK         0.0276 
     46 CB         26.2857   31.3366    6.7270 C.3       7 UNK        -0.1927 
     47 C          27.6234   32.5262    4.9444 C.2       7 UNK         0.5013 
     48 O          27.2044   33.6844    4.9552 O.2       7 UNK        -0.5193 
     49 N          27.9951   31.8802    3.8309 N.am      8 UNK        -0.4253 
     50 CA         27.9124   32.4379    2.4820 C.3       8 UNK         0.0242 
     51 CB         27.4606   31.3429    1.4997 C.3       8 UNK        -0.2000 
     52 C          29.2463   33.0488    2.0344 C.2       8 UNK         0.4948 
     53 O          29.2520   34.1805    1.5480 O.2       8 UNK        -0.5275 
     54 N          30.3428   32.2922    2.1785 N.am      9 UNK        -0.4246 
     55 CA         31.6585   32.6413    1.6374 C.3       9 UNK         0.0261 
     56 CB         31.7097   32.2908    0.1362 C.3       9 UNK        -0.1959 
     57 C          32.8141   32.0087    2.4322 C.2       9 UNK         0.5033 
     58 O          33.8583   31.7172    1.8471 O.2       9 UNK        -0.5390 
     59 N          32.6293   31.8262    3.7491 N.am      10 UNK        -0.4215 
     60 CA         33.6338   31.3497    4.7139 C.3       10 UNK         0.0240 
     61 CB         34.7807   32.3744    4.8605 C.3       10 UNK        -0.1982 
     62 C          34.1474   29.9145    4.4601 C.2       10 UNK         0.4970 
     63 O          35.2688   29.5967    4.8585 O.2       10 UNK        -0.4916 
     64 N          33.3051   29.0689    3.8508 N.am      11 UNK        -0.4279 
     65 CA         33.5624   27.6589    3.5278 C.3       11 UNK         0.1003 
     66 C          34.6249   27.5159    2.4024 C.2       11 UNK         0.5709 
     67 N          34.2259   27.7376    1.1584 N.am      11 UNK        -0.7358 
     68 O          35.7923   27.2126    2.6403 O.2       11 UNK        -0.4999 
     69 C69        33.8278   26.7764    4.7819 C.3       12 UNK        -0.0954 
     70 S70        33.4154   25.0254    4.4634 S.3       12 UNK        -0.2268 
     71 C71        32.0650   24.6835    5.6400 C.3       12 UNK         0.0203 
     72 H72        32.5833   25.2568   -0.9745 H         1 UNK         0.0888 
     73 H73        32.6393   23.6809   -1.7694 H         1 UNK         0.0888 
     74 H74        31.7376   25.0090   -2.5052 H         1 UNK         0.0888 
     75 H75        31.2982   22.1819   -0.7305 H         1 UNK         0.3017 
     76 H76        29.4252   22.9101    1.2118 H         1 UNK         0.0873 
     77 H77        28.7428   20.4720    1.1958 H         1 UNK         0.0745 
     78 H78        29.7013   20.2271   -0.2371 H         1 UNK         0.0745 
     79 H79        31.1147   19.9681    4.0244 H         1 UNK         0.0705 
     80 H80        29.4978   19.8717    3.3829 H         1 UNK         0.0705 
     81 H81        32.1468   22.1566    4.6118 H         1 UNK         0.1334 
     82 H82        29.4820   25.4554    5.2164 H         1 UNK         0.1417 
     83 H83        28.0766   21.9003    3.2852 H         1 UNK         0.1562 
     84 H84        26.9536   24.9039    4.9340 H         1 UNK         0.0748 
     85 H85        26.5216   23.6390    3.8224 H         1 UNK         0.0748 
     86 H86        27.8130   27.0039    4.4720 H         1 UNK         0.0940 
     87 H87        27.1341   27.9086    3.1604 H         1 UNK         0.0940 
     88 H88        29.9466   26.6839    3.0012 H         1 UNK         0.0703 
     89 H89        28.3347   27.8666    1.0413 H         1 UNK         0.3081 
     90 H90        29.4594   29.4830   -0.7805 H         1 UNK         0.0719 
     91 H91        31.7699   27.6755   -1.6982 H         1 UNK         0.0809 
     92 H92        30.9824   28.9138   -2.6736 H         1 UNK         0.0809 
     93 H93        31.9353   29.3690   -1.2732 H         1 UNK         0.0809 
     94 H94        29.3374   26.5348   -1.0054 H         1 UNK         0.2990 
     95 H95        26.4836   26.7472   -3.1733 H         1 UNK         0.0690 
     96 H96        29.2018   25.3660   -3.5087 H         1 UNK         0.0788 
     97 H97        28.4574   26.4540   -4.6746 H         1 UNK         0.0788 
     98 H98        27.7028   24.9086   -4.3144 H         1 UNK         0.0788 
     99 H99        27.9488   25.2318   -1.0571 H         1 UNK         0.2993 
    100 H100       25.4727   24.3487    0.4708 H         1 UNK         0.0949 
    101 H101       25.3175   22.0059   -1.4921 H         1 UNK         0.0767 
    102 H102       24.9300   21.9085    0.2258 H         1 UNK         0.0767 
    103 H103       23.9727   22.9245   -0.8368 H         1 UNK         0.0767 
    104 H104       27.4800   23.7138    1.0671 H         1 UNK         0.3013 
    105 H105       29.8571   27.4026    5.3892 H         1 UNK         0.3121 
    106 H106       31.6352   29.4389    5.8750 H         1 UNK         0.0774 
    107 H107       30.9831   29.1480    8.2692 H         1 UNK         0.0815 
    108 H108       29.5932   28.1938    7.7744 H         1 UNK         0.0815 
    109 H109       31.2293   27.6158    7.4558 H         1 UNK         0.0815 
    110 H110       28.0774   29.6653    6.1696 H         1 UNK         0.2987 
    111 H111       28.1051   32.4360    7.0226 H         1 UNK         0.0949 
    112 H112       25.6311   32.2051    6.8142 H         1 UNK         0.0806 
    113 H113       25.8205   30.6486    6.0199 H         1 UNK         0.0806 
    114 H114       26.3080   30.8527    7.7036 H         1 UNK         0.0806 
    115 H115       28.4111   30.9622    3.9190 H         1 UNK         0.3010 
    116 H116       27.1601   33.2297    2.4572 H         1 UNK         0.0829 
    117 H117       26.4838   30.9442    1.7740 H         1 UNK         0.0813 
    118 H118       27.3756   31.7391    0.4868 H         1 UNK         0.0813 
    119 H119       28.1631   30.5113    1.4643 H         1 UNK         0.0813 
    120 H120       30.2521   31.3602    2.5859 H         1 UNK         0.3038 
    121 H121       31.8010   33.7195    1.7361 H         1 UNK         0.0769 
    122 H122       32.6666   32.5684   -0.3076 H         1 UNK         0.0811 
    123 H123       30.9350   32.8126   -0.4254 H         1 UNK         0.0811 
    124 H124       31.5720   31.2219   -0.0163 H         1 UNK         0.0811 
    125 H125       31.7352   32.0847    4.1476 H         1 UNK         0.3204 
    126 H126       33.1272   31.3110    5.6781 H         1 UNK         0.0748 
    127 H127       35.4402   32.1110    5.6883 H         1 UNK         0.0771 
    128 H128       35.3951   32.4269    3.9611 H         1 UNK         0.0771 
    129 H129       34.3961   33.3740    5.0633 H         1 UNK         0.0771 
    130 H130       32.4340   29.4394    3.4954 H         1 UNK         0.2980 
    131 H131       32.6204   27.3045    3.1114 H         1 UNK         0.0545 
    132 H132       34.8812   27.6648    0.3978 H         1 UNK         0.3459 
    133 H133       33.2520   27.9812    0.9847 H         1 UNK         0.3459 
    134 H134       34.8680   26.8441    5.1042 H         1 UNK         0.0616 
    135 H135       33.2374   27.1384    5.6238 H         1 UNK         0.0616 
    136 H136       32.4638   24.1145    6.4808 H         1 UNK         0.0634 
    137 H137       31.6778   25.6130    6.0564 H         1 UNK         0.0634 
@<TRIPOS>BOND
     1    1    2 1    
     2    1   72 1    
     3    1   73 1    
     4    1   74 1    
     5    2    3 2    
     6    2    4 am   BACKBONE|DICT|INTERRES
     7    4    5 1    
     8    4   75 1    
     9    5    6 1    
    10    5   35 1    
    11    5   76 1    
    12    6    7 1    
    13    6   77 1    
    14    6   78 1    
    15    7    8 1    
    16    8    9 1    
    17    8   79 1    
    18    8   80 1    
    19    9   10 ar   
    20    9   14 ar   
    21   10   11 ar   
    22   10   81 1    
    23   11   12 ar   
    24   11   71 1    
    25   12   13 ar   
    26   12   82 1    
    27   13   14 ar   
    28   13   15 1    
    29   14   83 1    
    30   15   16 1    
    31   15   84 1    
    32   15   85 1    
    33   16   17 1    
    34   17   18 1    
    35   17   86 1    
    36   17   87 1    
    37   18   19 1    
    38   18   37 1    
    39   18   88 1    
    40   19   20 am   BACKBONE|DICT|INTERRES
    41   19   89 1    
    42   20   21 2    
    43   20   22 1    
    44   22   23 1    
    45   22   24 1    
    46   22   90 1    
    47   23   91 1    
    48   23   92 1    
    49   23   93 1    
    50   24   25 am   BACKBONE|DICT|INTERRES
    51   24   94 1    
    52   25   26 2    
    53   25   27 1    
    54   27   28 1    
    55   27   29 1    
    56   27   95 1    
    57   28   96 1    
    58   28   97 1    
    59   28   98 1    
    60   29   30 am   BACKBONE|DICT|INTERRES
    61   29   99 1    
    62   30   31 2    
    63   30   32 1    
    64   32   33 1    
    65   32   34 1    
    66   32  100 1    
    67   33  101 1    
    68   33  102 1    
    69   33  103 1    
    70   34   35 am   BACKBONE|DICT|INTERRES
    71   34  104 1    
    72   35   36 2    
    73   37   38 2    
    74   37   39 am   BACKBONE|DICT|INTERRES
    75   39   40 1    
    76   39  105 1    
    77   40   41 1    
    78   40   42 1    
    79   40  106 1    
    80   41  107 1    
    81   41  108 1    
    82   41  109 1    
    83   42   43 2    
    84   42   44 am   BACKBONE|DICT|INTERRES
    85   44   45 1    
    86   44  110 1    
    87   45   46 1    
    88   45   47 1    
    89   45  111 1    
    90   46  112 1    
    91   46  113 1    
    92   46  114 1    
    93   47   48 2    
    94   47   49 am   BACKBONE|DICT|INTERRES
    95   49   50 1    
    96   49  115 1    
    97   50   51 1    
    98   50   52 1    
    99   50  116 1    
   100   51  117 1    
   101   51  118 1    
   102   51  119 1    
   103   52   53 2    
   104   52   54 am   BACKBONE|DICT|INTERRES
   105   54   55 1    
   106   54  120 1    
   107   55   56 1    
   108   55   57 1    
   109   55  121 1    
   110   56  122 1    
   111   56  123 1    
   112   56  124 1    
   113   57   58 2    
   114   57   59 am   BACKBONE|DICT|INTERRES
   115   59   60 1    
   116   59  125 1    
   117   60   61 1    
   118   60   62 1    
   119   60  126 1    
   120   61  127 1    
   121   61  128 1    
   122   61  129 1    
   123   62   63 2    
   124   62   64 am   BACKBONE|DICT|INTERRES
   125   64   65 1    
   126   64  130 1    
   127   65   66 1    
   128   65   69 1    
   129   65  131 1    
   130   66   67 am   BACKBONE|DICT|INTERRES
   131   66   68 2    
   132   67  132 1    
   133   67  133 1    
   134   69   70 1    
   135   69  134 1    
   136   69  135 1    
   137   70   71 1    
   138   71  136 1    
   139   71  137 1    
@<TRIPOS>SUBSTRUCTURE
     1 UNK         1 GROUP             0       ****    0 ROOT    
