@<TRIPOS>MOLECULE
3R136
137   139    1
SMALL
USER_CHARGES


@<TRIPOS>ATOM
      1 CA         32.9993   20.4963   -0.4917 C.3       0 UNK        -0.1979 
      2 C          32.2949   21.7861   -0.8868 C.2       0 UNK         0.4864 
      3 O          32.4254   22.2288   -2.0296 O.2       0 UNK        -0.5359 
      4 N          31.5586   22.3947    0.0513 N.am      1 UNK        -0.4318 
      5 CA         30.7759   23.6179   -0.1598 C.3       1 UNK         0.0824 
      6 C6         30.3628   24.2819    1.1779 C.3       12 UNK        -0.0944 
      7 S7         31.8028   24.7257    2.2044 S.3       12 UNK        -0.2672 
      8 C8         31.3123   24.0630    3.8265 C.3       12 UNK         0.0333 
      9 C9         30.2063   24.8889    4.4698 C.ar      12 UNK        -0.0807 
     10 C10        30.5053   26.1354    5.0278 C.ar      12 UNK        -0.0894 
     11 C11        29.5161   26.8904    5.6656 C.ar      12 UNK        -0.0804 
     12 C12        28.2164   26.3835    5.7370 C.ar      12 UNK        -0.0824 
     13 C13        27.8929   25.1526    5.1573 C.ar      12 UNK        -0.0762 
     14 C14        28.8946   24.4053    4.5294 C.ar      12 UNK        -0.0782 
     15 C15        26.4640   24.6271    5.2306 C.3       12 UNK         0.0230 
     16 S16        25.5229   24.9163    3.6938 S.3       12 UNK        -0.2608 
     17 C17        25.5208   26.7385    3.5688 C.3       12 UNK        -0.0989 
     18 CA         26.2425   27.2040    2.2715 C.3       5 UNK         0.0716 
     19 N          25.4145   27.0167    1.0689 N.am      5 UNK        -0.4135 
     20 C          24.2652   27.6521    0.7779 C.2       4 UNK         0.5031 
     21 O          23.7651   28.5217    1.4921 O.2       4 UNK        -0.5229 
     22 CA         23.5557   27.2918   -0.5427 C.3       4 UNK         0.0329 
     23 CB         23.8602   28.3509   -1.6156 C.3       4 UNK        -0.2001 
     24 N          23.9146   25.9719   -1.0622 N.am      4 UNK        -0.4303 
     25 C          23.5767   24.8046   -0.4968 C.2       3 UNK         0.5044 
     26 O          22.8110   24.7068    0.4625 O.2       3 UNK        -0.5152 
     27 CA         24.2137   23.5287   -1.0838 C.3       3 UNK         0.0319 
     28 CB         23.1935   22.7716   -1.9499 C.3       3 UNK        -0.2001 
     29 N          25.4416   23.7401   -1.8657 N.am      3 UNK        -0.4354 
     30 C          26.5706   24.3044   -1.4134 C.2       2 UNK         0.4964 
     31 O          26.6865   24.8146   -0.2961 O.2       2 UNK        -0.5047 
     32 CA         27.7471   24.3679   -2.4019 C.3       2 UNK         0.0288 
     33 CB         27.6436   25.6321   -3.2715 C.3       2 UNK        -0.2113 
     34 N          29.0302   24.3783   -1.6968 N.am      2 UNK        -0.4145 
     35 C          29.5233   23.3364   -1.0135 C.2       1 UNK         0.5006 
     36 O          29.0059   22.2147   -1.0060 O.2       1 UNK        -0.5103 
     37 C          26.8688   28.6168    2.3819 C.2       5 UNK         0.5055 
     38 O          27.3487   28.9972    3.4514 O.2       5 UNK        -0.5220 
     39 N          26.9211   29.3599    1.2673 N.am      6 UNK        -0.4450 
     40 CA         27.5088   30.6973    1.1580 C.3       6 UNK         0.0367 
     41 CB         26.7724   31.4709    0.0479 C.3       6 UNK        -0.1929 
     42 C          29.0302   30.6217    0.9230 C.2       6 UNK         0.5070 
     43 O          29.5383   31.1983   -0.0397 O.2       6 UNK        -0.5237 
     44 N          29.7301   29.8807    1.7918 N.am      7 UNK        -0.4739 
     45 CA         31.1722   29.6311    1.7020 C.3       7 UNK         0.0276 
     46 CB         31.5198   28.4053    2.5573 C.3       7 UNK        -0.1927 
     47 C          32.0283   30.8391    2.1176 C.2       7 UNK         0.5013 
     48 O          33.1662   30.9519    1.6586 O.2       7 UNK        -0.5193 
     49 N          31.4746   31.7109    2.9761 N.am      8 UNK        -0.4253 
     50 CA         32.0791   32.9410    3.5016 C.3       8 UNK         0.0242 
     51 CB         32.0919   34.0333    2.4075 C.3       8 UNK        -0.2000 
     52 C          33.4559   32.6698    4.1388 C.2       8 UNK         0.4948 
     53 O          33.5193   31.9688    5.1487 O.2       8 UNK        -0.5275 
     54 N          34.5315   33.1759    3.5210 N.am      9 UNK        -0.4246 
     55 CA         35.9222   32.9751    3.9377 C.3       9 UNK         0.0261 
     56 CB         36.8384   33.8482    3.0646 C.3       9 UNK        -0.1959 
     57 C          36.3953   31.5078    3.9131 C.2       9 UNK         0.5033 
     58 O          37.3512   31.1856    4.6201 O.2       9 UNK        -0.5390 
     59 N          35.7364   30.6458    3.1234 N.am      10 UNK        -0.4215 
     60 CA         36.0208   29.2093    3.0647 C.3       10 UNK         0.0240 
     61 CB         35.6588   28.6715    1.6693 C.3       10 UNK        -0.1982 
     62 C          35.3163   28.4014    4.1725 C.2       10 UNK         0.4970 
     63 O          35.6159   27.2147    4.3107 O.2       10 UNK        -0.4916 
     64 N          34.4021   29.0226    4.9336 N.am      11 UNK        -0.4279 
     65 CA         33.7288   28.4045    6.0844 C.3       11 UNK         0.1003 
     66 C          34.7033   28.1536    7.2698 C.2       11 UNK         0.5709 
     67 N          34.5497   27.0450    7.9812 N.am      11 UNK        -0.7358 
     68 O          35.5748   28.9686    7.5678 O.2       11 UNK        -0.4999 
     69 C69        32.4952   29.2404    6.5167 C.3       12 UNK        -0.0954 
     70 S70        31.2355   28.2573    7.4037 S.3       12 UNK        -0.2268 
     71 C71        29.8209   28.2661    6.2500 C.3       12 UNK         0.0203 
     72 H72        34.0757   20.6003   -0.6253 H         1 UNK         0.0888 
     73 H73        32.8112   20.2312    0.5486 H         1 UNK         0.0888 
     74 H74        32.6552   19.6741   -1.1186 H         1 UNK         0.0888 
     75 H75        31.4783   21.9803    0.9680 H         1 UNK         0.3017 
     76 H76        31.4042   24.3216   -0.7108 H         1 UNK         0.0873 
     77 H77        29.6981   23.6217    1.7380 H         1 UNK         0.0745 
     78 H78        29.7952   25.1976    0.9995 H         1 UNK         0.0745 
     79 H79        31.0133   23.0188    3.7228 H         1 UNK         0.0705 
     80 H80        32.1850   24.0640    4.4812 H         1 UNK         0.0705 
     81 H81        31.5131   26.5149    4.9613 H         1 UNK         0.1334 
     82 H82        27.4470   26.9603    6.2314 H         1 UNK         0.1417 
     83 H83        28.6506   23.4465    4.0925 H         1 UNK         0.1562 
     84 H84        25.9308   25.0825    6.0667 H         1 UNK         0.0748 
     85 H85        26.4815   23.5554    5.4338 H         1 UNK         0.0748 
     86 H86        25.9765   27.1562    4.4641 H         1 UNK         0.0940 
     87 H87        24.4890   27.0901    3.5964 H         1 UNK         0.0940 
     88 H88        27.1092   26.5560    2.1272 H         1 UNK         0.0703 
     89 H89        25.7452   26.2866    0.4421 H         1 UNK         0.3081 
     90 H90        22.4811   27.2987   -0.3482 H         1 UNK         0.0719 
     91 H91        23.2966   28.1628   -2.5296 H         1 UNK         0.0809 
     92 H92        24.9198   28.3757   -1.8732 H         1 UNK         0.0809 
     93 H93        23.5857   29.3485   -1.2691 H         1 UNK         0.0809 
     94 H94        24.5319   25.9475   -1.8602 H         1 UNK         0.2990 
     95 H95        24.4793   22.8931   -0.2365 H         1 UNK         0.0690 
     96 H96        23.5871   21.8100   -2.2801 H         1 UNK         0.0788 
     97 H97        22.9129   23.3436   -2.8353 H         1 UNK         0.0788 
     98 H98        22.2791   22.5682   -1.3904 H         1 UNK         0.0788 
     99 H99        25.4319   23.3775   -2.8087 H         1 UNK         0.2993 
    100 H100       27.7159   23.4864   -3.0464 H         1 UNK         0.0949 
    101 H101       28.4626   25.6874   -3.9892 H         1 UNK         0.0767 
    102 H102       26.7150   25.6412   -3.8440 H         1 UNK         0.0767 
    103 H103       27.6641   26.5413   -2.6686 H         1 UNK         0.0767 
    104 H104       29.4949   25.2715   -1.6260 H         1 UNK         0.3013 
    105 H105       26.5553   28.9595    0.4166 H         1 UNK         0.3121 
    106 H106       27.3535   31.2358    2.0954 H         1 UNK         0.0774 
    107 H107       27.1476   32.4921   -0.0317 H         1 UNK         0.0815 
    108 H108       26.8992   30.9994   -0.9275 H         1 UNK         0.0815 
    109 H109       25.7035   31.5361    0.2526 H         1 UNK         0.0815 
    110 H110       29.2220   29.4391    2.5506 H         1 UNK         0.2987 
    111 H111       31.4146   29.4004    0.6621 H         1 UNK         0.0949 
    112 H112       31.3906   28.6059    3.6188 H         1 UNK         0.0806 
    113 H113       30.8922   27.5527    2.2990 H         1 UNK         0.0806 
    114 H114       32.5553   28.0995    2.4103 H         1 UNK         0.0806 
    115 H115       30.5450   31.5014    3.3101 H         1 UNK         0.3010 
    116 H116       31.4344   33.2885    4.3104 H         1 UNK         0.0829 
    117 H117       31.0797   34.2490    2.0648 H         1 UNK         0.0813 
    118 H118       32.5034   34.9701    2.7861 H         1 UNK         0.0813 
    119 H119       32.6729   33.7387    1.5327 H         1 UNK         0.0813 
    120 H120       34.3844   33.7104    2.6769 H         1 UNK         0.3038 
    121 H121       36.0053   33.3197    4.9706 H         1 UNK         0.0769 
    122 H122       37.8810   33.7477    3.3702 H         1 UNK         0.0811 
    123 H123       36.5802   34.9041    3.1480 H         1 UNK         0.0811 
    124 H124       36.7795   33.5681    2.0120 H         1 UNK         0.0811 
    125 H125       34.9416   30.9726    2.5790 H         1 UNK         0.3204 
    126 H126       37.0938   29.0579    3.2011 H         1 UNK         0.0748 
    127 H127       35.9163   27.6154    1.5781 H         1 UNK         0.0771 
    128 H128       34.5947   28.7636    1.4577 H         1 UNK         0.0771 
    129 H129       36.2012   29.2037    0.8877 H         1 UNK         0.0771 
    130 H130       34.2442   30.0163    4.8137 H         1 UNK         0.2980 
    131 H131       33.3768   27.4323    5.7385 H         1 UNK         0.0545 
    132 H132       33.8177   26.3869    7.7645 H         1 UNK         0.3459 
    133 H133       35.1650   26.8728    8.7606 H         1 UNK         0.3459 
    134 H134       32.0323   29.7013    5.6446 H         1 UNK         0.0616 
    135 H135       32.7944   30.0768    7.1513 H         1 UNK         0.0616 
    136 H136       28.9571   28.6385    6.8025 H         1 UNK         0.0634 
    137 H137       29.9697   28.9738    5.4357 H         1 UNK         0.0634 
@<TRIPOS>BOND
     1    1    2 1    
     2    1   72 1    
     3    1   73 1    
     4    1   74 1    
     5    2    3 2    
     6    2    4 am   BACKBONE|DICT|INTERRES
     7    4    5 1    
     8    4   75 1    
     9    5    6 1    
    10    5   35 1    
    11    5   76 1    
    12    6    7 1    
    13    6   77 1    
    14    6   78 1    
    15    7    8 1    
    16    8    9 1    
    17    8   79 1    
    18    8   80 1    
    19    9   10 ar   
    20    9   14 ar   
    21   10   11 ar   
    22   10   81 1    
    23   11   12 ar   
    24   11   71 1    
    25   12   13 ar   
    26   12   82 1    
    27   13   14 ar   
    28   13   15 1    
    29   14   83 1    
    30   15   16 1    
    31   15   84 1    
    32   15   85 1    
    33   16   17 1    
    34   17   18 1    
    35   17   86 1    
    36   17   87 1    
    37   18   19 1    
    38   18   37 1    
    39   18   88 1    
    40   19   20 am   BACKBONE|DICT|INTERRES
    41   19   89 1    
    42   20   21 2    
    43   20   22 1    
    44   22   23 1    
    45   22   24 1    
    46   22   90 1    
    47   23   91 1    
    48   23   92 1    
    49   23   93 1    
    50   24   25 am   BACKBONE|DICT|INTERRES
    51   24   94 1    
    52   25   26 2    
    53   25   27 1    
    54   27   28 1    
    55   27   29 1    
    56   27   95 1    
    57   28   96 1    
    58   28   97 1    
    59   28   98 1    
    60   29   30 am   BACKBONE|DICT|INTERRES
    61   29   99 1    
    62   30   31 2    
    63   30   32 1    
    64   32   33 1    
    65   32   34 1    
    66   32  100 1    
    67   33  101 1    
    68   33  102 1    
    69   33  103 1    
    70   34   35 am   BACKBONE|DICT|INTERRES
    71   34  104 1    
    72   35   36 2    
    73   37   38 2    
    74   37   39 am   BACKBONE|DICT|INTERRES
    75   39   40 1    
    76   39  105 1    
    77   40   41 1    
    78   40   42 1    
    79   40  106 1    
    80   41  107 1    
    81   41  108 1    
    82   41  109 1    
    83   42   43 2    
    84   42   44 am   BACKBONE|DICT|INTERRES
    85   44   45 1    
    86   44  110 1    
    87   45   46 1    
    88   45   47 1    
    89   45  111 1    
    90   46  112 1    
    91   46  113 1    
    92   46  114 1    
    93   47   48 2    
    94   47   49 am   BACKBONE|DICT|INTERRES
    95   49   50 1    
    96   49  115 1    
    97   50   51 1    
    98   50   52 1    
    99   50  116 1    
   100   51  117 1    
   101   51  118 1    
   102   51  119 1    
   103   52   53 2    
   104   52   54 am   BACKBONE|DICT|INTERRES
   105   54   55 1    
   106   54  120 1    
   107   55   56 1    
   108   55   57 1    
   109   55  121 1    
   110   56  122 1    
   111   56  123 1    
   112   56  124 1    
   113   57   58 2    
   114   57   59 am   BACKBONE|DICT|INTERRES
   115   59   60 1    
   116   59  125 1    
   117   60   61 1    
   118   60   62 1    
   119   60  126 1    
   120   61  127 1    
   121   61  128 1    
   122   61  129 1    
   123   62   63 2    
   124   62   64 am   BACKBONE|DICT|INTERRES
   125   64   65 1    
   126   64  130 1    
   127   65   66 1    
   128   65   69 1    
   129   65  131 1    
   130   66   67 am   BACKBONE|DICT|INTERRES
   131   66   68 2    
   132   67  132 1    
   133   67  133 1    
   134   69   70 1    
   135   69  134 1    
   136   69  135 1    
   137   70   71 1    
   138   71  136 1    
   139   71  137 1    
@<TRIPOS>SUBSTRUCTURE
     1 UNK         1 GROUP             0       ****    0 ROOT    
