@<TRIPOS>MOLECULE
3R136
137   139    1
SMALL
USER_CHARGES


@<TRIPOS>ATOM
      1 CA         26.9349   21.5441    4.4584 C.3       0 UNK        -0.1979 
      2 C          27.0419   21.4307    2.9458 C.2       0 UNK         0.4864 
      3 O          26.0584   21.0921    2.2848 O.2       0 UNK        -0.5359 
      4 N          28.2273   21.7122    2.3889 N.am      1 UNK        -0.4318 
      5 CA         28.5602   21.6075    0.9608 C.3       1 UNK         0.0824 
      6 C6         30.0872   21.4479    0.7244 C.3       12 UNK        -0.0944 
      7 S7         30.8387   20.1377    1.7622 S.3       12 UNK        -0.2672 
      8 C8         32.5400   20.7401    2.0565 C.3       12 UNK         0.0333 
      9 C9         32.5875   22.2001    2.4881 C.ar      12 UNK        -0.0807 
     10 C10        33.2161   23.1465    1.6712 C.ar      12 UNK        -0.0894 
     11 C11        33.1845   24.5019    2.0066 C.ar      12 UNK        -0.0804 
     12 C12        32.5243   24.9075    3.1680 C.ar      12 UNK        -0.0824 
     13 C13        31.8994   23.9720    3.9959 C.ar      12 UNK        -0.0762 
     14 C14        31.9519   22.6150    3.6636 C.ar      12 UNK        -0.0782 
     15 C15        31.1313   24.4424    5.2219 C.3       12 UNK         0.0230 
     16 S16        29.3239   24.2430    5.0482 S.3       12 UNK        -0.2608 
     17 C17        28.9654   24.8182    3.3500 C.3       12 UNK        -0.0989 
     18 CA         29.2453   26.3164    3.0868 C.3       5 UNK         0.0716 
     19 N          29.2910   26.5767    1.6489 N.am      5 UNK        -0.4135 
     20 C          30.1098   27.4470    1.0449 C.2       4 UNK         0.5031 
     21 O          30.9807   28.0970    1.6257 O.2       4 UNK        -0.5229 
     22 CA         29.9265   27.6294   -0.4745 C.3       4 UNK         0.0329 
     23 CB         30.8802   26.7095   -1.2534 C.3       4 UNK        -0.2001 
     24 N          28.5569   27.3809   -0.9323 N.am      4 UNK        -0.4303 
     25 C          27.4939   28.1252   -0.5986 C.2       3 UNK         0.5044 
     26 O          27.5514   29.1119    0.1320 O.2       3 UNK        -0.5152 
     27 CA         26.1262   27.6664   -1.1295 C.3       3 UNK         0.0319 
     28 CB         25.8493   28.2957   -2.5038 C.3       3 UNK        -0.2001 
     29 N          25.9603   26.2119   -1.2186 N.am      3 UNK        -0.4354 
     30 C          26.1300   25.3271   -0.2246 C.2       2 UNK         0.4964 
     31 O          26.5208   25.6356    0.9054 O.2       2 UNK        -0.5047 
     32 CA         25.7856   23.8569   -0.5450 C.3       2 UNK         0.0288 
     33 CB         25.7875   23.5288   -2.0568 C.3       2 UNK        -0.2113 
     34 N          26.6248   22.8953    0.1767 N.am      2 UNK        -0.4145 
     35 C          27.9590   22.7758    0.1403 C.2       1 UNK         0.5006 
     36 O          28.6960   23.5355   -0.4937 O.2       1 UNK        -0.5103 
     37 C          28.2153   27.2311    3.7749 C.2       5 UNK         0.5055 
     38 O          28.4726   27.6982    4.8852 O.2       5 UNK        -0.5220 
     39 N          27.0738   27.4759    3.1119 N.am      6 UNK        -0.4450 
     40 CA         25.9991   28.3408    3.6067 C.3       6 UNK         0.0367 
     41 CB         24.7571   28.1816    2.7171 C.3       6 UNK        -0.1929 
     42 C          26.4029   29.8227    3.7098 C.2       6 UNK         0.5070 
     43 O          25.9490   30.5037    4.6304 O.2       6 UNK        -0.5237 
     44 N          27.2382   30.2995    2.7755 N.am      7 UNK        -0.4739 
     45 CA         27.8081   31.6469    2.7801 C.3       7 UNK         0.0276 
     46 CB         28.5323   31.9028    1.4479 C.3       7 UNK        -0.1927 
     47 C          28.7751   31.8428    3.9581 C.2       7 UNK         0.5013 
     48 O          29.7175   31.0613    4.1089 O.2       7 UNK        -0.5193 
     49 N          28.5582   32.9150    4.7334 N.am      8 UNK        -0.4253 
     50 CA         29.3313   33.2799    5.9293 C.3       8 UNK         0.0242 
     51 CB         28.6777   34.5025    6.5949 C.3       8 UNK        -0.2000 
     52 C          30.8301   33.5396    5.6823 C.2       8 UNK         0.4948 
     53 O          31.6118   33.4923    6.6327 O.2       8 UNK        -0.5275 
     54 N          31.2065   33.7884    4.4200 N.am      9 UNK        -0.4246 
     55 CA         32.5895   33.8965    3.9560 C.3       9 UNK         0.0261 
     56 CB         32.5937   34.4078    2.5055 C.3       9 UNK        -0.1959 
     57 C          33.3868   32.5810    4.0622 C.2       9 UNK         0.5033 
     58 O          34.6090   32.6585    4.1860 O.2       9 UNK        -0.5390 
     59 N          32.6924   31.4283    4.0186 N.am      10 UNK        -0.4215 
     60 CA         33.2070   30.0527    4.0722 C.3       10 UNK         0.0240 
     61 CB         33.8389   29.7496    5.4462 C.3       10 UNK        -0.1982 
     62 C          34.1659   29.7366    2.9090 C.2       10 UNK         0.4970 
     63 O          35.3631   30.0149    2.9978 O.2       10 UNK        -0.4916 
     64 N          33.6112   29.1593    1.8370 N.am      11 UNK        -0.4279 
     65 CA         34.3057   28.8006    0.5865 C.3       11 UNK         0.1003 
     66 C          34.6907   30.0148   -0.3119 C.2       11 UNK         0.5709 
     67 N          34.1734   31.2125   -0.0641 N.am      11 UNK        -0.7358 
     68 O          35.4425   29.8655   -1.2725 O.2       11 UNK        -0.4999 
     69 C69        35.4887   27.7947    0.7653 C.3       12 UNK        -0.0954 
     70 S70        35.1844   26.4046    1.9109 S.3       12 UNK        -0.2268 
     71 C71        33.8082   25.5441    1.0946 C.3       12 UNK         0.0203 
     72 H72        26.4426   22.4770    4.7313 H         1 UNK         0.0888 
     73 H73        26.3492   20.7173    4.8591 H         1 UNK         0.0888 
     74 H74        27.9151   21.5205    4.9342 H         1 UNK         0.0888 
     75 H75        28.9963   21.9806    2.9856 H         1 UNK         0.3017 
     76 H76        28.0890   20.6974    0.5830 H         1 UNK         0.0873 
     77 H77        30.2844   21.2046   -0.3211 H         1 UNK         0.0745 
     78 H78        30.5838   22.4001    0.9066 H         1 UNK         0.0745 
     79 H79        33.1223   20.5872    1.1465 H         1 UNK         0.0705 
     80 H80        33.0065   20.1233    2.8257 H         1 UNK         0.0705 
     81 H81        33.7015   22.8325    0.7572 H         1 UNK         0.1334 
     82 H82        32.4874   25.9604    3.4125 H         1 UNK         0.1417 
     83 H83        31.4549   21.8881    4.2919 H         1 UNK         0.1562 
     84 H84        31.3489   25.4901    5.4358 H         1 UNK         0.0748 
     85 H85        31.4659   23.8809    6.0952 H         1 UNK         0.0748 
     86 H86        27.9258   24.5774    3.1187 H         1 UNK         0.0940 
     87 H87        29.5581   24.2129    2.6631 H         1 UNK         0.0940 
     88 H88        30.2182   26.5645    3.5116 H         1 UNK         0.0703 
     89 H89        28.5894   26.1070    1.0889 H         1 UNK         0.3081 
     90 H90        30.1740   28.6658   -0.7138 H         1 UNK         0.0719 
     91 H91        30.7328   25.6598   -0.9931 H         1 UNK         0.0809 
     92 H92        30.7400   26.8106   -2.3297 H         1 UNK         0.0809 
     93 H93        31.9200   26.9575   -1.0480 H         1 UNK         0.0809 
     94 H94        28.4099   26.5712   -1.5182 H         1 UNK         0.2990 
     95 H95        25.3676   28.0320   -0.4373 H         1 UNK         0.0690 
     96 H96        24.8378   28.0756   -2.8458 H         1 UNK         0.0788 
     97 H97        26.5468   27.9364   -3.2616 H         1 UNK         0.0788 
     98 H98        25.9445   29.3819   -2.4620 H         1 UNK         0.0788 
     99 H99        25.6462   25.8551   -2.1096 H         1 UNK         0.2993 
    100 H100       24.7712   23.7047   -0.1734 H         1 UNK         0.0949 
    101 H101       25.5776   22.4726   -2.2272 H         1 UNK         0.0767 
    102 H102       25.0194   24.0878   -2.5926 H         1 UNK         0.0767 
    103 H103       26.7500   23.7503   -2.5203 H         1 UNK         0.0767 
    104 H104       26.1360   22.2583    0.8025 H         1 UNK         0.3013 
    105 H105       26.9081   26.9984    2.2309 H         1 UNK         0.3121 
    106 H106       25.7411   27.9988    4.6113 H         1 UNK         0.0774 
    107 H107       24.4633   27.1362    2.6198 H         1 UNK         0.0815 
    108 H108       23.9080   28.7209    3.1388 H         1 UNK         0.0815 
    109 H109       24.9278   28.5807    1.7183 H         1 UNK         0.0815 
    110 H110       27.5231   29.6912    2.0135 H         1 UNK         0.2987 
    111 H111       26.9849   32.3595    2.8666 H         1 UNK         0.0949 
    112 H112       27.8447   31.8337    0.6048 H         1 UNK         0.0806 
    113 H113       28.9744   32.8995    1.4236 H         1 UNK         0.0806 
    114 H114       29.3353   31.1826    1.2820 H         1 UNK         0.0806 
    115 H115       27.7654   33.5048    4.5233 H         1 UNK         0.3010 
    116 H116       29.2681   32.4384    6.6225 H         1 UNK         0.0829 
    117 H117       28.6836   35.3720    5.9364 H         1 UNK         0.0813 
    118 H118       29.2078   34.7816    7.5069 H         1 UNK         0.0813 
    119 H119       27.6442   34.2984    6.8754 H         1 UNK         0.0813 
    120 H120       30.4859   33.8310    3.7149 H         1 UNK         0.3038 
    121 H121       33.0934   34.6360    4.5821 H         1 UNK         0.0769 
    122 H122       32.1134   35.3833    2.4263 H         1 UNK         0.0811 
    123 H123       32.0775   33.7220    1.8324 H         1 UNK         0.0811 
    124 H124       33.6138   34.5210    2.1352 H         1 UNK         0.0811 
    125 H125       31.6801   31.4893    3.9438 H         1 UNK         0.3204 
    126 H126       32.3361   29.4018    3.9702 H         1 UNK         0.0748 
    127 H127       34.7131   30.3715    5.6416 H         1 UNK         0.0771 
    128 H128       33.1250   29.9137    6.2535 H         1 UNK         0.0771 
    129 H129       34.1621   28.7094    5.5025 H         1 UNK         0.0771 
    130 H130       32.6187   28.9304    1.8523 H         1 UNK         0.2980 
    131 H131       33.5462   28.2920   -0.0037 H         1 UNK         0.0545 
    132 H132       34.4194   31.9884   -0.6581 H         1 UNK         0.3459 
    133 H133       33.5503   31.3457    0.7147 H         1 UNK         0.3459 
    134 H134       36.3730   28.3202    1.1294 H         1 UNK         0.0616 
    135 H135       35.7710   27.3732   -0.2010 H         1 UNK         0.0616 
    136 H136       34.1578   25.1014    0.1608 H         1 UNK         0.0634 
    137 H137       33.0320   26.2608    0.8368 H         1 UNK         0.0634 
@<TRIPOS>BOND
     1    1    2 1    
     2    1   72 1    
     3    1   73 1    
     4    1   74 1    
     5    2    3 2    
     6    2    4 am   BACKBONE|DICT|INTERRES
     7    4    5 1    
     8    4   75 1    
     9    5    6 1    
    10    5   35 1    
    11    5   76 1    
    12    6    7 1    
    13    6   77 1    
    14    6   78 1    
    15    7    8 1    
    16    8    9 1    
    17    8   79 1    
    18    8   80 1    
    19    9   10 ar   
    20    9   14 ar   
    21   10   11 ar   
    22   10   81 1    
    23   11   12 ar   
    24   11   71 1    
    25   12   13 ar   
    26   12   82 1    
    27   13   14 ar   
    28   13   15 1    
    29   14   83 1    
    30   15   16 1    
    31   15   84 1    
    32   15   85 1    
    33   16   17 1    
    34   17   18 1    
    35   17   86 1    
    36   17   87 1    
    37   18   19 1    
    38   18   37 1    
    39   18   88 1    
    40   19   20 am   BACKBONE|DICT|INTERRES
    41   19   89 1    
    42   20   21 2    
    43   20   22 1    
    44   22   23 1    
    45   22   24 1    
    46   22   90 1    
    47   23   91 1    
    48   23   92 1    
    49   23   93 1    
    50   24   25 am   BACKBONE|DICT|INTERRES
    51   24   94 1    
    52   25   26 2    
    53   25   27 1    
    54   27   28 1    
    55   27   29 1    
    56   27   95 1    
    57   28   96 1    
    58   28   97 1    
    59   28   98 1    
    60   29   30 am   BACKBONE|DICT|INTERRES
    61   29   99 1    
    62   30   31 2    
    63   30   32 1    
    64   32   33 1    
    65   32   34 1    
    66   32  100 1    
    67   33  101 1    
    68   33  102 1    
    69   33  103 1    
    70   34   35 am   BACKBONE|DICT|INTERRES
    71   34  104 1    
    72   35   36 2    
    73   37   38 2    
    74   37   39 am   BACKBONE|DICT|INTERRES
    75   39   40 1    
    76   39  105 1    
    77   40   41 1    
    78   40   42 1    
    79   40  106 1    
    80   41  107 1    
    81   41  108 1    
    82   41  109 1    
    83   42   43 2    
    84   42   44 am   BACKBONE|DICT|INTERRES
    85   44   45 1    
    86   44  110 1    
    87   45   46 1    
    88   45   47 1    
    89   45  111 1    
    90   46  112 1    
    91   46  113 1    
    92   46  114 1    
    93   47   48 2    
    94   47   49 am   BACKBONE|DICT|INTERRES
    95   49   50 1    
    96   49  115 1    
    97   50   51 1    
    98   50   52 1    
    99   50  116 1    
   100   51  117 1    
   101   51  118 1    
   102   51  119 1    
   103   52   53 2    
   104   52   54 am   BACKBONE|DICT|INTERRES
   105   54   55 1    
   106   54  120 1    
   107   55   56 1    
   108   55   57 1    
   109   55  121 1    
   110   56  122 1    
   111   56  123 1    
   112   56  124 1    
   113   57   58 2    
   114   57   59 am   BACKBONE|DICT|INTERRES
   115   59   60 1    
   116   59  125 1    
   117   60   61 1    
   118   60   62 1    
   119   60  126 1    
   120   61  127 1    
   121   61  128 1    
   122   61  129 1    
   123   62   63 2    
   124   62   64 am   BACKBONE|DICT|INTERRES
   125   64   65 1    
   126   64  130 1    
   127   65   66 1    
   128   65   69 1    
   129   65  131 1    
   130   66   67 am   BACKBONE|DICT|INTERRES
   131   66   68 2    
   132   67  132 1    
   133   67  133 1    
   134   69   70 1    
   135   69  134 1    
   136   69  135 1    
   137   70   71 1    
   138   71  136 1    
   139   71  137 1    
@<TRIPOS>SUBSTRUCTURE
     1 UNK         1 GROUP             0       ****    0 ROOT    
