@<TRIPOS>MOLECULE
3R136
137   139    1
SMALL
USER_CHARGES


@<TRIPOS>ATOM
      1 CA         25.6445   21.4654   -1.1972 C.3       0 UNK        -0.1979 
      2 C          27.0916   21.7148   -0.7975 C.2       0 UNK         0.4864 
      3 O          27.9725   21.6871   -1.6572 O.2       0 UNK        -0.5359 
      4 N          27.3288   21.9656    0.4943 N.am      1 UNK        -0.4318 
      5 CA         28.6223   22.3216    1.0787 C.3       1 UNK         0.0824 
      6 C6         29.3076   21.1137    1.7784 C.3       12 UNK        -0.0944 
      7 S7         30.2303   20.0929    0.5787 S.3       12 UNK        -0.2672 
      8 C8         31.9776   20.4535    0.9847 C.3       12 UNK         0.0333 
      9 C9         32.2896   21.9439    1.0914 C.ar      12 UNK        -0.0807 
     10 C10        32.8919   22.4491    2.2473 C.ar      12 UNK        -0.0894 
     11 C11        33.1476   23.8169    2.3790 C.ar      12 UNK        -0.0804 
     12 C12        32.7757   24.6900    1.3499 C.ar      12 UNK        -0.0824 
     13 C13        32.1821   24.1965    0.1828 C.ar      12 UNK        -0.0762 
     14 C14        31.9731   22.8194    0.0484 C.ar      12 UNK        -0.0782 
     15 C15        31.7308   25.1424   -0.9232 C.3       12 UNK         0.0230 
     16 S16        29.9203   25.0991   -1.0745 S.3       12 UNK        -0.2608 
     17 C17        29.5608   26.2925   -2.4090 C.3       12 UNK        -0.0989 
     18 CA         28.7918   27.5595   -1.9401 C.3       5 UNK         0.0716 
     19 N          27.7697   27.2711   -0.9279 N.am      5 UNK        -0.4135 
     20 C          26.4587   27.1344   -1.1641 C.2       4 UNK         0.5031 
     21 O          25.9379   27.3173   -2.2654 O.2       4 UNK        -0.5229 
     22 CA         25.5645   26.6946    0.0143 C.3       4 UNK         0.0329 
     23 CB         25.2364   25.1977   -0.1057 C.3       4 UNK        -0.2001 
     24 N          26.1583   26.9463    1.3302 N.am      4 UNK        -0.4303 
     25 C          26.3459   28.1647    1.8582 C.2       3 UNK         0.5044 
     26 O          25.9221   29.1957    1.3384 O.2       3 UNK        -0.5152 
     27 CA         27.1611   28.2704    3.1647 C.3       3 UNK         0.0319 
     28 CB         26.2580   28.6824    4.3377 C.3       3 UNK        -0.2001 
     29 N          27.9082   27.0635    3.5376 N.am      3 UNK        -0.4354 
     30 C          28.8784   26.4933    2.8112 C.2       2 UNK         0.4964 
     31 O          29.2242   26.9051    1.7035 O.2       2 UNK        -0.5047 
     32 CA         29.5776   25.2561    3.3965 C.3       2 UNK         0.0288 
     33 CB         29.0908   24.8465    4.8068 C.3       2 UNK        -0.2113 
     34 N          29.5124   24.1175    2.4768 N.am      2 UNK        -0.4145 
     35 C          28.4039   23.4995    2.0442 C.2       1 UNK         0.5006 
     36 O          27.2583   23.8212    2.3790 O.2       1 UNK        -0.5103 
     37 C          29.7347   28.6814   -1.4756 C.2       5 UNK         0.5055 
     38 O          30.0189   29.5872   -2.2604 O.2       5 UNK        -0.5220 
     39 N          30.1738   28.6423   -0.2122 N.am      6 UNK        -0.4450 
     40 CA         31.0201   29.6542    0.4195 C.3       6 UNK         0.0367 
     41 CB         32.0989   28.9411    1.2558 C.3       6 UNK        -0.1929 
     42 C          30.1584   30.6097    1.2620 C.2       6 UNK         0.5070 
     43 O          30.4774   30.8670    2.4222 O.2       6 UNK        -0.5237 
     44 N          29.0682   31.1198    0.6728 N.am      7 UNK        -0.4739 
     45 CA         28.0056   31.9029    1.3237 C.3       7 UNK         0.0276 
     46 CB         26.9713   32.3089    0.2612 C.3       7 UNK        -0.1927 
     47 C          28.4585   33.1397    2.1235 C.2       7 UNK         0.5013 
     48 O          27.7385   33.5673    3.0263 O.2       7 UNK        -0.5193 
     49 N          29.6331   33.6867    1.7883 N.am      8 UNK        -0.4253 
     50 CA         30.2492   34.8228    2.4700 C.3       8 UNK         0.0242 
     51 CB         31.3514   35.4049    1.5691 C.3       8 UNK        -0.2000 
     52 C          30.8200   34.4963    3.8640 C.2       8 UNK         0.4948 
     53 O          30.9614   35.4258    4.6609 O.2       8 UNK        -0.5275 
     54 N          31.1734   33.2289    4.1374 N.am      9 UNK        -0.4246 
     55 CA         31.8990   32.8511    5.3609 C.3       9 UNK         0.0261 
     56 CB         33.4058   33.1119    5.1594 C.3       9 UNK        -0.1959 
     57 C          31.6718   31.4110    5.8539 C.2       9 UNK         0.5033 
     58 O          32.0854   31.1114    6.9763 O.2       9 UNK        -0.5390 
     59 N          31.0650   30.5375    5.0369 N.am      10 UNK        -0.4215 
     60 CA         30.9715   29.0849    5.2219 C.3       10 UNK         0.0240 
     61 CB         30.1040   28.7252    6.4504 C.3       10 UNK        -0.1982 
     62 C          32.3743   28.4414    5.2077 C.2       10 UNK         0.4970 
     63 O          33.2441   28.9160    4.4739 O.2       10 UNK        -0.4916 
     64 N          32.5777   27.3788    5.9938 N.am      11 UNK        -0.4279 
     65 CA         33.8780   26.7006    6.1408 C.3       11 UNK         0.1003 
     66 C          34.7998   27.3315    7.2266 C.2       11 UNK         0.5709 
     67 N          34.4161   28.4212    7.8825 N.am      11 UNK        -0.7358 
     68 O          35.8947   26.8304    7.4716 O.2       11 UNK        -0.4999 
     69 C69        33.7238   25.1664    6.3285 C.3       12 UNK        -0.0954 
     70 S70        32.6924   24.3802    5.0466 S.3       12 UNK        -0.2268 
     71 C71        33.8338   24.3412    3.6322 C.3       12 UNK         0.0203 
     72 H72        25.3278   22.2015   -1.9356 H         1 UNK         0.0888 
     73 H73        25.5426   20.4739   -1.6377 H         1 UNK         0.0888 
     74 H74        24.9684   21.5291   -0.3447 H         1 UNK         0.0888 
     75 H75        26.5555   22.0553    1.1409 H         1 UNK         0.3017 
     76 H76        29.2712   22.6995    0.2904 H         1 UNK         0.0873 
     77 H77        29.9983   21.4280    2.5629 H         1 UNK         0.0745 
     78 H78        28.5678   20.4870    2.2794 H         1 UNK         0.0745 
     79 H79        32.6151   20.0132    0.2170 H         1 UNK         0.0705 
     80 H80        32.2233   19.9421    1.9168 H         1 UNK         0.0705 
     81 H81        33.1597   21.7799    3.0540 H         1 UNK         0.1334 
     82 H82        32.9481   25.7523    1.4583 H         1 UNK         0.1417 
     83 H83        31.5102   22.4342   -0.8509 H         1 UNK         0.1562 
     84 H84        32.1865   24.8457   -1.8689 H         1 UNK         0.0748 
     85 H85        32.0517   26.1654   -0.7206 H         1 UNK         0.0748 
     86 H86        28.9450   25.7633   -3.1378 H         1 UNK         0.0940 
     87 H87        30.4770   26.5508   -2.9442 H         1 UNK         0.0940 
     88 H88        28.2953   27.9679   -2.8232 H         1 UNK         0.0703 
     89 H89        28.1141   27.0819    0.0067 H         1 UNK         0.3081 
     90 H90        24.6313   27.2581   -0.0511 H         1 UNK         0.0719 
     91 H91        24.7279   24.9827   -1.0466 H         1 UNK         0.0809 
     92 H92        24.5822   24.8649    0.7003 H         1 UNK         0.0809 
     93 H93        26.1406   24.5896   -0.0788 H         1 UNK         0.0809 
     94 H94        26.5242   26.1440    1.8265 H         1 UNK         0.2990 
     95 H95        27.8968   29.0623    3.0113 H         1 UNK         0.0690 
     96 H96        26.8388   28.8656    5.2418 H         1 UNK         0.0788 
     97 H97        25.5152   27.9160    4.5625 H         1 UNK         0.0788 
     98 H98        25.7185   29.6034    4.1116 H         1 UNK         0.0788 
     99 H99        27.6615   26.6355    4.4184 H         1 UNK         0.2993 
    100 H100       30.6289   25.5326    3.4680 H         1 UNK         0.0949 
    101 H101       29.6364   23.9739    5.1662 H         1 UNK         0.0767 
    102 H102       29.2589   25.6408    5.5328 H         1 UNK         0.0767 
    103 H103       28.0300   24.5940    4.8263 H         1 UNK         0.0767 
    104 H104       30.4037   23.8181    2.1021 H         1 UNK         0.3013 
    105 H105       29.8671   27.8896    0.4041 H         1 UNK         0.3121 
    106 H106       31.5278   30.2573   -0.3358 H         1 UNK         0.0774 
    107 H107       31.6596   28.3225    2.0389 H         1 UNK         0.0815 
    108 H108       32.7609   29.6598    1.7410 H         1 UNK         0.0815 
    109 H109       32.7220   28.2997    0.6333 H         1 UNK         0.0815 
    110 H110       28.9071   30.8714   -0.2934 H         1 UNK         0.2987 
    111 H111       27.5149   31.2424    2.0397 H         1 UNK         0.0949 
    112 H112       27.4107   32.9465   -0.5069 H         1 UNK         0.0806 
    113 H113       26.5427   31.4350   -0.2300 H         1 UNK         0.0806 
    114 H114       26.1439   32.8601    0.7104 H         1 UNK         0.0806 
    115 H115       30.1549   33.2616    1.0359 H         1 UNK         0.3010 
    116 H116       29.4835   35.5899    2.6062 H         1 UNK         0.0829 
    117 H117       30.9515   35.7236    0.6062 H         1 UNK         0.0813 
    118 H118       31.8120   36.2795    2.0310 H         1 UNK         0.0813 
    119 H119       32.1451   34.6803    1.3819 H         1 UNK         0.0813 
    120 H120       31.0064   32.5090    3.4417 H         1 UNK         0.3038 
    121 H121       31.5524   33.4846    6.1804 H         1 UNK         0.0769 
    122 H122       33.8052   32.5211    4.3342 H         1 UNK         0.0811 
    123 H123       33.9755   32.8513    6.0526 H         1 UNK         0.0811 
    124 H124       33.6064   34.1625    4.9489 H         1 UNK         0.0811 
    125 H125       30.8105   30.8339    4.0950 H         1 UNK         0.3204 
    126 H126       30.4598   28.7072    4.3359 H         1 UNK         0.0748 
    127 H127       29.1485   29.2486    6.4180 H         1 UNK         0.0771 
    128 H128       29.8783   27.6605    6.4842 H         1 UNK         0.0771 
    129 H129       30.5904   28.9876    7.3904 H         1 UNK         0.0771 
    130 H130       31.8311   27.0448    6.5841 H         1 UNK         0.2980 
    131 H131       34.4348   26.8375    5.2130 H         1 UNK         0.0545 
    132 H132       35.0290   28.8172    8.5773 H         1 UNK         0.3459 
    133 H133       33.5409   28.8737    7.6669 H         1 UNK         0.3459 
    134 H134       34.6988   24.6754    6.3299 H         1 UNK         0.0616 
    135 H135       33.2721   24.9497    7.2980 H         1 UNK         0.0616 
    136 H136       34.2275   25.3419    3.4517 H         1 UNK         0.0634 
    137 H137       34.6894   23.7095    3.8755 H         1 UNK         0.0634 
@<TRIPOS>BOND
     1    1    2 1    
     2    1   72 1    
     3    1   73 1    
     4    1   74 1    
     5    2    3 2    
     6    2    4 am   BACKBONE|DICT|INTERRES
     7    4    5 1    
     8    4   75 1    
     9    5    6 1    
    10    5   35 1    
    11    5   76 1    
    12    6    7 1    
    13    6   77 1    
    14    6   78 1    
    15    7    8 1    
    16    8    9 1    
    17    8   79 1    
    18    8   80 1    
    19    9   10 ar   
    20    9   14 ar   
    21   10   11 ar   
    22   10   81 1    
    23   11   12 ar   
    24   11   71 1    
    25   12   13 ar   
    26   12   82 1    
    27   13   14 ar   
    28   13   15 1    
    29   14   83 1    
    30   15   16 1    
    31   15   84 1    
    32   15   85 1    
    33   16   17 1    
    34   17   18 1    
    35   17   86 1    
    36   17   87 1    
    37   18   19 1    
    38   18   37 1    
    39   18   88 1    
    40   19   20 am   BACKBONE|DICT|INTERRES
    41   19   89 1    
    42   20   21 2    
    43   20   22 1    
    44   22   23 1    
    45   22   24 1    
    46   22   90 1    
    47   23   91 1    
    48   23   92 1    
    49   23   93 1    
    50   24   25 am   BACKBONE|DICT|INTERRES
    51   24   94 1    
    52   25   26 2    
    53   25   27 1    
    54   27   28 1    
    55   27   29 1    
    56   27   95 1    
    57   28   96 1    
    58   28   97 1    
    59   28   98 1    
    60   29   30 am   BACKBONE|DICT|INTERRES
    61   29   99 1    
    62   30   31 2    
    63   30   32 1    
    64   32   33 1    
    65   32   34 1    
    66   32  100 1    
    67   33  101 1    
    68   33  102 1    
    69   33  103 1    
    70   34   35 am   BACKBONE|DICT|INTERRES
    71   34  104 1    
    72   35   36 2    
    73   37   38 2    
    74   37   39 am   BACKBONE|DICT|INTERRES
    75   39   40 1    
    76   39  105 1    
    77   40   41 1    
    78   40   42 1    
    79   40  106 1    
    80   41  107 1    
    81   41  108 1    
    82   41  109 1    
    83   42   43 2    
    84   42   44 am   BACKBONE|DICT|INTERRES
    85   44   45 1    
    86   44  110 1    
    87   45   46 1    
    88   45   47 1    
    89   45  111 1    
    90   46  112 1    
    91   46  113 1    
    92   46  114 1    
    93   47   48 2    
    94   47   49 am   BACKBONE|DICT|INTERRES
    95   49   50 1    
    96   49  115 1    
    97   50   51 1    
    98   50   52 1    
    99   50  116 1    
   100   51  117 1    
   101   51  118 1    
   102   51  119 1    
   103   52   53 2    
   104   52   54 am   BACKBONE|DICT|INTERRES
   105   54   55 1    
   106   54  120 1    
   107   55   56 1    
   108   55   57 1    
   109   55  121 1    
   110   56  122 1    
   111   56  123 1    
   112   56  124 1    
   113   57   58 2    
   114   57   59 am   BACKBONE|DICT|INTERRES
   115   59   60 1    
   116   59  125 1    
   117   60   61 1    
   118   60   62 1    
   119   60  126 1    
   120   61  127 1    
   121   61  128 1    
   122   61  129 1    
   123   62   63 2    
   124   62   64 am   BACKBONE|DICT|INTERRES
   125   64   65 1    
   126   64  130 1    
   127   65   66 1    
   128   65   69 1    
   129   65  131 1    
   130   66   67 am   BACKBONE|DICT|INTERRES
   131   66   68 2    
   132   67  132 1    
   133   67  133 1    
   134   69   70 1    
   135   69  134 1    
   136   69  135 1    
   137   70   71 1    
   138   71  136 1    
   139   71  137 1    
@<TRIPOS>SUBSTRUCTURE
     1 UNK         1 GROUP             0       ****    0 ROOT    
