@<TRIPOS>MOLECULE
3R136
137   139    1
SMALL
USER_CHARGES


@<TRIPOS>ATOM
      1 CA         24.2552   27.8897    1.8997 C.3       0 UNK        -0.1979 
      2 C          25.3992   26.8872    1.8843 C.2       0 UNK         0.4864 
      3 O          26.3060   27.0058    1.0595 O.2       0 UNK        -0.5359 
      4 N          25.3626   25.8988    2.7885 N.am      1 UNK        -0.4318 
      5 CA         26.3256   24.7944    2.8991 C.3       1 UNK         0.0824 
      6 C6         27.7947   25.2929    3.0498 C.3       12 UNK        -0.0944 
      7 S7         28.7984   24.2214    4.1271 S.3       12 UNK        -0.2672 
      8 C8         30.0629   25.3986    4.7019 C.3       12 UNK         0.0333 
      9 C9         31.1475   25.6097    3.6558 C.ar      12 UNK        -0.0807 
     10 C10        32.1915   24.6875    3.5521 C.ar      12 UNK        -0.0894 
     11 C11        33.2185   24.8775    2.6247 C.ar      12 UNK        -0.0804 
     12 C12        33.1795   25.9841    1.7737 C.ar      12 UNK        -0.0824 
     13 C13        32.1460   26.9209    1.8704 C.ar      12 UNK        -0.0762 
     14 C14        31.1316   26.7293    2.8168 C.ar      12 UNK        -0.0782 
     15 C15        32.1658   28.1547    0.9791 C.3       12 UNK         0.0230 
     16 S16        30.9061   28.0919   -0.3316 S.3       12 UNK        -0.2608 
     17 C17        29.5597   29.0478    0.4331 C.3       12 UNK        -0.0989 
     18 CA         28.4479   29.4106   -0.5848 C.3       5 UNK         0.0716 
     19 N          27.7098   28.2087   -0.9646 N.am      5 UNK        -0.4135 
     20 C          27.4926   27.7548   -2.1996 C.2       4 UNK         0.5031 
     21 O          27.8436   28.3392   -3.2276 O.2       4 UNK        -0.5229 
     22 CA         26.7881   26.3849   -2.2699 C.3       4 UNK         0.0329 
     23 CB         26.3289   26.0062   -3.6947 C.3       4 UNK        -0.2001 
     24 N          27.6164   25.3242   -1.6739 N.am      4 UNK        -0.4303 
     25 C          28.8283   24.9095   -2.0844 C.2       3 UNK         0.5044 
     26 O          29.3908   25.3254   -3.0982 O.2       3 UNK        -0.5152 
     27 CA         29.5585   23.8488   -1.2346 C.3       3 UNK         0.0319 
     28 CB         30.7696   24.4649   -0.5171 C.3       3 UNK        -0.2001 
     29 N          28.7210   23.1963   -0.2294 N.am      3 UNK        -0.4354 
     30 C          27.8360   22.2186   -0.4654 C.2       2 UNK         0.4964 
     31 O          27.6148   21.7452   -1.5798 O.2       2 UNK        -0.5047 
     32 CA         27.0664   21.6813    0.7562 C.3       2 UNK         0.0288 
     33 CB         27.7508   20.4231    1.3131 C.3       2 UNK        -0.2113 
     34 N          26.9426   22.6775    1.8264 N.am      2 UNK        -0.4145 
     35 C          26.1747   23.7717    1.7475 C.2       1 UNK         0.5006 
     36 O          25.4015   23.9784    0.8078 O.2       1 UNK        -0.5103 
     37 C          27.4832   30.4334    0.0435 C.2       5 UNK         0.5055 
     38 O          26.3151   30.1288    0.2995 O.2       5 UNK        -0.5220 
     39 N          28.0114   31.6245    0.3583 N.am      6 UNK        -0.4450 
     40 CA         27.3722   32.6190    1.2237 C.3       6 UNK         0.0367 
     41 CB         28.0318   33.9913    0.9950 C.3       6 UNK        -0.1929 
     42 C          27.4380   32.1692    2.6981 C.2       6 UNK         0.5070 
     43 O          28.2183   32.7129    3.4811 O.2       6 UNK        -0.5237 
     44 N          26.6480   31.1389    3.0239 N.am      7 UNK        -0.4739 
     45 CA         26.4904   30.4535    4.3132 C.3       7 UNK         0.0276 
     46 CB         25.9802   31.4098    5.4079 C.3       7 UNK        -0.1927 
     47 C          27.7336   29.6762    4.7789 C.2       7 UNK         0.5013 
     48 O          27.6398   28.4673    4.9835 O.2       7 UNK        -0.5193 
     49 N          28.8633   30.3699    4.9482 N.am      8 UNK        -0.4253 
     50 CA         30.1194   29.8297    5.4686 C.3       8 UNK         0.0242 
     51 CB         30.0236   29.6081    6.9931 C.3       8 UNK        -0.2000 
     52 C          31.2766   30.7537    5.0691 C.2       8 UNK         0.4948 
     53 O          32.0008   31.2537    5.9306 O.2       8 UNK        -0.5275 
     54 N          31.4149   30.9875    3.7576 N.am      9 UNK        -0.4246 
     55 CA         32.4307   31.8698    3.1703 C.3       9 UNK         0.0261 
     56 CB         32.0213   32.2190    1.7289 C.3       9 UNK        -0.1959 
     57 C          33.8686   31.3101    3.2066 C.2       9 UNK         0.5033 
     58 O          34.8057   32.0669    2.9474 O.2       9 UNK        -0.5390 
     59 N          34.0295   30.0167    3.5098 N.am      10 UNK        -0.4215 
     60 CA         35.3024   29.3106    3.6212 C.3       10 UNK         0.0240 
     61 CB         35.8163   28.9173    2.2212 C.3       10 UNK        -0.1982 
     62 C          35.1082   28.0827    4.5224 C.2       10 UNK         0.4970 
     63 O          33.9837   27.8125    4.9524 O.2       10 UNK        -0.4916 
     64 N          36.2144   27.3752    4.7857 N.am      11 UNK        -0.4279 
     65 CA         36.2984   26.1331    5.5787 C.3       11 UNK         0.1003 
     66 C          36.0164   26.3063    7.1033 C.2       11 UNK         0.5709 
     67 N          36.0141   27.5193    7.6434 N.am      11 UNK        -0.7358 
     68 O          35.8343   25.3250    7.8207 O.2       11 UNK        -0.4999 
     69 C69        35.5065   24.9436    4.9582 C.3       12 UNK        -0.0954 
     70 S70        35.9271   24.6301    3.2068 S.3       12 UNK        -0.2268 
     71 C71        34.3844   23.9017    2.5618 C.3       12 UNK         0.0203 
     72 H72        24.6378   28.8957    2.0597 H         1 UNK         0.0888 
     73 H73        23.7365   27.8750    0.9427 H         1 UNK         0.0888 
     74 H74        23.5310   27.6724    2.6832 H         1 UNK         0.0888 
     75 H75        24.5767   25.8446    3.4217 H         1 UNK         0.3017 
     76 H76        26.0374   24.2714    3.8127 H         1 UNK         0.0873 
     77 H77        27.7955   26.2870    3.4976 H         1 UNK         0.0745 
     78 H78        28.2915   25.4126    2.0845 H         1 UNK         0.0745 
     79 H79        30.5138   25.0067    5.6147 H         1 UNK         0.0705 
     80 H80        29.5988   26.3456    4.9816 H         1 UNK         0.0705 
     81 H81        32.2140   23.8308    4.2117 H         1 UNK         0.1334 
     82 H82        33.9750   26.1272    1.0557 H         1 UNK         0.1417 
     83 H83        30.3320   27.4489    2.9074 H         1 UNK         0.1562 
     84 H84        33.1389   28.2603    0.4978 H         1 UNK         0.0748 
     85 H85        32.0412   29.0456    1.5917 H         1 UNK         0.0748 
     86 H86        30.0054   29.9433    0.8666 H         1 UNK         0.0940 
     87 H87        29.1407   28.4770    1.2639 H         1 UNK         0.0940 
     88 H88        28.8955   29.8771   -1.4650 H         1 UNK         0.0703 
     89 H89        27.2646   27.7157   -0.1873 H         1 UNK         0.3081 
     90 H90        25.8924   26.4593   -1.6507 H         1 UNK         0.0719 
     91 H91        25.6390   26.7529   -4.0892 H         1 UNK         0.0809 
     92 H92        27.1642   25.9396   -4.3923 H         1 UNK         0.0809 
     93 H93        25.8095   25.0480   -3.7012 H         1 UNK         0.0809 
     94 H94        27.2483   24.9226   -0.8224 H         1 UNK         0.2990 
     95 H95        29.9268   23.0860   -1.9239 H         1 UNK         0.0690 
     96 H96        31.4241   24.9859   -1.2171 H         1 UNK         0.0788 
     97 H97        31.3702   23.7032   -0.0196 H         1 UNK         0.0788 
     98 H98        30.4590   25.1878    0.2373 H         1 UNK         0.0788 
     99 H99        28.8472   23.5022    0.7237 H         1 UNK         0.2993 
    100 H100       26.0639   21.4084    0.4198 H         1 UNK         0.0949 
    101 H101       27.8368   19.6533    0.5448 H         1 UNK         0.0767 
    102 H102       28.7571   20.6363    1.6750 H         1 UNK         0.0767 
    103 H103       27.1809   19.9941    2.1371 H         1 UNK         0.0767 
    104 H104       27.5491   22.5705    2.6293 H         1 UNK         0.3013 
    105 H105       28.9685   31.8139    0.0989 H         1 UNK         0.3121 
    106 H106       26.3188   32.7078    0.9483 H         1 UNK         0.0774 
    107 H107       27.5636   34.7541    1.6185 H         1 UNK         0.0815 
    108 H108       29.0942   33.9826    1.2384 H         1 UNK         0.0815 
    109 H109       27.9275   34.3135   -0.0410 H         1 UNK         0.0815 
    110 H110       26.1364   30.7227    2.2515 H         1 UNK         0.2987 
    111 H111       25.7099   29.7089    4.1545 H         1 UNK         0.0949 
    112 H112       25.7954   30.8711    6.3381 H         1 UNK         0.0806 
    113 H113       25.0421   31.8803    5.1146 H         1 UNK         0.0806 
    114 H114       26.6948   32.2015    5.6312 H         1 UNK         0.0806 
    115 H115       28.8535   31.3556    4.6921 H         1 UNK         0.3010 
    116 H116       30.3114   28.8640    4.9974 H         1 UNK         0.0829 
    117 H117       29.2467   28.8869    7.2457 H         1 UNK         0.0813 
    118 H118       30.9616   29.2189    7.3908 H         1 UNK         0.0813 
    119 H119       29.8027   30.5367    7.5203 H         1 UNK         0.0813 
    120 H120       30.7531   30.5681    3.1236 H         1 UNK         0.3038 
    121 H121       32.4377   32.7968    3.7480 H         1 UNK         0.0769 
    122 H122       31.0185   32.6429    1.6940 H         1 UNK         0.0811 
    123 H123       32.6979   32.9621    1.3041 H         1 UNK         0.0811 
    124 H124       32.0481   31.3505    1.0714 H         1 UNK         0.0811 
    125 H125       33.2330   29.4661    3.8052 H         1 UNK         0.3204 
    126 H126       36.0281   29.9677    4.1049 H         1 UNK         0.0748 
    127 H127       36.8125   28.4774    2.2730 H         1 UNK         0.0771 
    128 H128       35.1652   28.1849    1.7464 H         1 UNK         0.0771 
    129 H129       35.8849   29.7819    1.5610 H         1 UNK         0.0771 
    130 H130       37.0911   27.6922    4.3989 H         1 UNK         0.2980 
    131 H131       37.3520   25.8550    5.5397 H         1 UNK         0.0545 
    132 H132       36.1709   28.3337    7.0726 H         1 UNK         0.3459 
    133 H133       35.8432   27.6187    8.6314 H         1 UNK         0.3459 
    134 H134       35.7075   24.0221    5.5067 H         1 UNK         0.0616 
    135 H135       34.4373   25.1255    5.0584 H         1 UNK         0.0616 
    136 H136       34.5433   23.5979    1.5262 H         1 UNK         0.0634 
    137 H137       34.1608   22.9907    3.1188 H         1 UNK         0.0634 
@<TRIPOS>BOND
     1    1    2 1    
     2    1   72 1    
     3    1   73 1    
     4    1   74 1    
     5    2    3 2    
     6    2    4 am   BACKBONE|DICT|INTERRES
     7    4    5 1    
     8    4   75 1    
     9    5    6 1    
    10    5   35 1    
    11    5   76 1    
    12    6    7 1    
    13    6   77 1    
    14    6   78 1    
    15    7    8 1    
    16    8    9 1    
    17    8   79 1    
    18    8   80 1    
    19    9   10 ar   
    20    9   14 ar   
    21   10   11 ar   
    22   10   81 1    
    23   11   12 ar   
    24   11   71 1    
    25   12   13 ar   
    26   12   82 1    
    27   13   14 ar   
    28   13   15 1    
    29   14   83 1    
    30   15   16 1    
    31   15   84 1    
    32   15   85 1    
    33   16   17 1    
    34   17   18 1    
    35   17   86 1    
    36   17   87 1    
    37   18   19 1    
    38   18   37 1    
    39   18   88 1    
    40   19   20 am   BACKBONE|DICT|INTERRES
    41   19   89 1    
    42   20   21 2    
    43   20   22 1    
    44   22   23 1    
    45   22   24 1    
    46   22   90 1    
    47   23   91 1    
    48   23   92 1    
    49   23   93 1    
    50   24   25 am   BACKBONE|DICT|INTERRES
    51   24   94 1    
    52   25   26 2    
    53   25   27 1    
    54   27   28 1    
    55   27   29 1    
    56   27   95 1    
    57   28   96 1    
    58   28   97 1    
    59   28   98 1    
    60   29   30 am   BACKBONE|DICT|INTERRES
    61   29   99 1    
    62   30   31 2    
    63   30   32 1    
    64   32   33 1    
    65   32   34 1    
    66   32  100 1    
    67   33  101 1    
    68   33  102 1    
    69   33  103 1    
    70   34   35 am   BACKBONE|DICT|INTERRES
    71   34  104 1    
    72   35   36 2    
    73   37   38 2    
    74   37   39 am   BACKBONE|DICT|INTERRES
    75   39   40 1    
    76   39  105 1    
    77   40   41 1    
    78   40   42 1    
    79   40  106 1    
    80   41  107 1    
    81   41  108 1    
    82   41  109 1    
    83   42   43 2    
    84   42   44 am   BACKBONE|DICT|INTERRES
    85   44   45 1    
    86   44  110 1    
    87   45   46 1    
    88   45   47 1    
    89   45  111 1    
    90   46  112 1    
    91   46  113 1    
    92   46  114 1    
    93   47   48 2    
    94   47   49 am   BACKBONE|DICT|INTERRES
    95   49   50 1    
    96   49  115 1    
    97   50   51 1    
    98   50   52 1    
    99   50  116 1    
   100   51  117 1    
   101   51  118 1    
   102   51  119 1    
   103   52   53 2    
   104   52   54 am   BACKBONE|DICT|INTERRES
   105   54   55 1    
   106   54  120 1    
   107   55   56 1    
   108   55   57 1    
   109   55  121 1    
   110   56  122 1    
   111   56  123 1    
   112   56  124 1    
   113   57   58 2    
   114   57   59 am   BACKBONE|DICT|INTERRES
   115   59   60 1    
   116   59  125 1    
   117   60   61 1    
   118   60   62 1    
   119   60  126 1    
   120   61  127 1    
   121   61  128 1    
   122   61  129 1    
   123   62   63 2    
   124   62   64 am   BACKBONE|DICT|INTERRES
   125   64   65 1    
   126   64  130 1    
   127   65   66 1    
   128   65   69 1    
   129   65  131 1    
   130   66   67 am   BACKBONE|DICT|INTERRES
   131   66   68 2    
   132   67  132 1    
   133   67  133 1    
   134   69   70 1    
   135   69  134 1    
   136   69  135 1    
   137   70   71 1    
   138   71  136 1    
   139   71  137 1    
@<TRIPOS>SUBSTRUCTURE
     1 UNK         1 GROUP             0       ****    0 ROOT    
