@<TRIPOS>MOLECULE
3R136
137   139    1
SMALL
USER_CHARGES


@<TRIPOS>ATOM
      1 CA         28.8475   19.9676   -2.5436 C.3       0 UNK        -0.1979 
      2 C          28.1680   20.9923   -1.6496 C.2       0 UNK         0.4864 
      3 O          27.5119   21.9051   -2.1548 O.2       0 UNK        -0.5359 
      4 N          28.2956   20.8400   -0.3232 N.am      1 UNK        -0.4318 
      5 CA         27.7932   21.7754    0.6969 C.3       1 UNK         0.0824 
      6 C6         28.4223   21.5260    2.0926 C.3       12 UNK        -0.0944 
      7 S7         30.2495   21.5602    2.0998 S.3       12 UNK        -0.2672 
      8 C8         30.6491   23.2663    1.5897 C.3       12 UNK         0.0333 
      9 C9         30.4181   24.2942    2.6899 C.ar      12 UNK        -0.0807 
     10 C10        31.4938   24.7398    3.4634 C.ar      12 UNK        -0.0894 
     11 C11        31.3170   25.7490    4.4140 C.ar      12 UNK        -0.0804 
     12 C12        30.0497   26.3067    4.6000 C.ar      12 UNK        -0.0824 
     13 C13        28.9637   25.8673    3.8367 C.ar      12 UNK        -0.0762 
     14 C14        29.1516   24.8526    2.8922 C.ar      12 UNK        -0.0782 
     15 C15        27.5954   26.5076    4.0219 C.3       12 UNK         0.0230 
     16 S16        27.5400   28.1884    3.3185 S.3       12 UNK        -0.2608 
     17 C17        27.3081   27.8672    1.5362 C.3       12 UNK        -0.0989 
     18 CA         28.6271   27.6339    0.7464 C.3       5 UNK         0.0716 
     19 N          28.3907   27.1640   -0.6160 N.am      5 UNK        -0.4135 
     20 C          27.9211   25.9521   -0.9262 C.2       4 UNK         0.5031 
     21 O          27.5814   25.1200   -0.0857 O.2       4 UNK        -0.5229 
     22 CA         27.8692   25.5807   -2.4144 C.3       4 UNK         0.0329 
     23 CB         29.2112   24.9722   -2.8541 C.3       4 UNK        -0.2001 
     24 N          26.8083   24.6034   -2.6643 N.am      4 UNK        -0.4303 
     25 C          25.5191   24.9152   -2.8490 C.2       3 UNK         0.5044 
     26 O          25.0925   26.0708   -2.8734 O.2       3 UNK        -0.5152 
     27 CA         24.5379   23.7519   -3.0518 C.3       3 UNK         0.0319 
     28 CB         24.7198   23.1227   -4.4438 C.3       3 UNK        -0.2001 
     29 N          24.7065   22.7187   -2.0280 N.am      3 UNK        -0.4354 
     30 C          23.7459   22.3055   -1.1862 C.2       2 UNK         0.4964 
     31 O          22.6046   22.7684   -1.1703 O.2       2 UNK        -0.5047 
     32 CA         24.0913   21.1689   -0.2018 C.3       2 UNK         0.0288 
     33 CB         23.5482   19.8269   -0.7202 C.3       2 UNK        -0.2113 
     34 N          25.5284   21.0387    0.0369 N.am      2 UNK        -0.4145 
     35 C          26.2532   21.8836    0.7826 C.2       1 UNK         0.5006 
     36 O          25.7484   22.7459    1.5036 O.2       1 UNK        -0.5103 
     37 C          29.5189   28.8816    0.6800 C.2       5 UNK         0.5055 
     38 O          29.4261   29.6465   -0.2841 O.2       5 UNK        -0.5220 
     39 N          30.3548   29.0613    1.7086 N.am      6 UNK        -0.4450 
     40 CA         31.2236   30.2214    1.9011 C.3       6 UNK         0.0367 
     41 CB         32.5847   29.9844    1.2219 C.3       6 UNK        -0.1929 
     42 C          31.3495   30.5611    3.3960 C.2       6 UNK         0.5070 
     43 O          32.4060   31.0320    3.8315 O.2       6 UNK        -0.5237 
     44 N          30.2715   30.3242    4.1598 N.am      7 UNK        -0.4739 
     45 CA         30.1638   30.6288    5.5884 C.3       7 UNK         0.0276 
     46 CB         28.8051   30.1466    6.1222 C.3       7 UNK        -0.1927 
     47 C          30.3550   32.1309    5.8565 C.2       7 UNK         0.5013 
     48 O          29.5781   32.9398    5.3460 O.2       7 UNK        -0.5193 
     49 N          31.4163   32.4599    6.6037 N.am      8 UNK        -0.4253 
     50 CA         31.9323   33.7975    6.9231 C.3       8 UNK         0.0242 
     51 CB         30.8726   34.6622    7.6387 C.3       8 UNK        -0.2000 
     52 C          32.5769   34.5376    5.7322 C.2       8 UNK         0.4948 
     53 O          33.0660   35.6518    5.9266 O.2       8 UNK        -0.5275 
     54 N          32.6030   33.9204    4.5428 N.am      9 UNK        -0.4246 
     55 CA         33.2684   34.4372    3.3465 C.3       9 UNK         0.0261 
     56 CB         32.4021   34.1624    2.1061 C.3       9 UNK        -0.1959 
     57 C          34.6640   33.8178    3.1897 C.2       9 UNK         0.5033 
     58 O          35.6126   34.5485    2.8998 O.2       9 UNK        -0.5390 
     59 N          34.7704   32.4974    3.3958 N.am      10 UNK        -0.4215 
     60 CA         36.0269   31.7456    3.3258 C.3       10 UNK         0.0240 
     61 CB         36.2131   31.1653    1.9122 C.3       10 UNK        -0.1982 
     62 C          36.1362   30.6375    4.3858 C.2       10 UNK         0.4970 
     63 O          37.2540   30.1837    4.6362 O.2       10 UNK        -0.4916 
     64 N          35.0192   30.2129    4.9895 N.am      11 UNK        -0.4279 
     65 CA         34.9755   29.1437    5.9969 C.3       11 UNK         0.1003 
     66 C          33.9086   29.4122    7.0917 C.2       11 UNK         0.5709 
     67 N          33.7090   28.4876    8.0210 N.am      11 UNK        -0.7358 
     68 O          33.2759   30.4651    7.1313 O.2       11 UNK        -0.4999 
     69 C69        34.8945   27.7341    5.3449 C.3       12 UNK        -0.0954 
     70 S70        33.4370   27.4908    4.2724 S.3       12 UNK        -0.2268 
     71 C71        32.5047   26.2504    5.2176 C.3       12 UNK         0.0203 
     72 H72        28.1083   19.4646   -3.1663 H         1 UNK         0.0888 
     73 H73        29.5648   20.4620   -3.1980 H         1 UNK         0.0888 
     74 H74        29.3789   19.2111   -1.9665 H         1 UNK         0.0888 
     75 H75        28.8421   20.0691    0.0349 H         1 UNK         0.3017 
     76 H76        28.1048   22.7623    0.3677 H         1 UNK         0.0873 
     77 H77        28.0661   22.2538    2.8228 H         1 UNK         0.0745 
     78 H78        28.1079   20.5522    2.4723 H         1 UNK         0.0745 
     79 H79        30.1004   23.5477    0.6918 H         1 UNK         0.0705 
     80 H80        31.6991   23.2840    1.2935 H         1 UNK         0.0705 
     81 H81        32.4791   24.3217    3.3069 H         1 UNK         0.1334 
     82 H82        29.9121   27.0960    5.3260 H         1 UNK         0.1417 
     83 H83        28.3173   24.5269    2.2863 H         1 UNK         0.1562 
     84 H84        27.3721   26.5676    5.0881 H         1 UNK         0.0748 
     85 H85        26.8090   25.8925    3.5811 H         1 UNK         0.0748 
     86 H86        26.7567   28.7054    1.1059 H         1 UNK         0.0940 
     87 H87        26.6441   27.0076    1.4406 H         1 UNK         0.0940 
     88 H88        29.2138   26.8604    1.2375 H         1 UNK         0.0703 
     89 H89        28.6722   27.8156   -1.3383 H         1 UNK         0.3081 
     90 H90        27.6800   26.4815   -3.0023 H         1 UNK         0.0719 
     91 H91        29.1961   24.7006   -3.9097 H         1 UNK         0.0809 
     92 H92        29.4527   24.0751   -2.2819 H         1 UNK         0.0809 
     93 H93        30.0293   25.6797   -2.7130 H         1 UNK         0.0809 
     94 H94        27.0758   23.6244   -2.5850 H         1 UNK         0.2990 
     95 H95        23.5314   24.1729   -3.0065 H         1 UNK         0.0690 
     96 H96        25.7010   22.6589   -4.5546 H         1 UNK         0.0788 
     97 H97        24.6209   23.8736   -5.2289 H         1 UNK         0.0788 
     98 H98        23.9665   22.3572   -4.6308 H         1 UNK         0.0788 
     99 H99        25.6339   22.3092   -1.9575 H         1 UNK         0.2993 
    100 H100       23.5991   21.3956    0.7468 H         1 UNK         0.0949 
    101 H101       23.7302   19.0228   -0.0068 H         1 UNK         0.0767 
    102 H102       22.4702   19.8781   -0.8802 H         1 UNK         0.0767 
    103 H103       24.0055   19.5453   -1.6698 H         1 UNK         0.0767 
    104 H104       26.0230   20.3524   -0.5140 H         1 UNK         0.3013 
    105 H105       30.3652   28.3777    2.4552 H         1 UNK         0.3121 
    106 H106       30.7582   31.0929    1.4360 H         1 UNK         0.0774 
    107 H107       33.2025   30.8809    1.2680 H         1 UNK         0.0815 
    108 H108       33.1371   29.1750    1.6999 H         1 UNK         0.0815 
    109 H109       32.4660   29.7335    0.1679 H         1 UNK         0.0815 
    110 H110       29.4320   29.9801    3.7145 H         1 UNK         0.2987 
    111 H111       30.9427   30.0652    6.1035 H         1 UNK         0.0949 
    112 H112       27.9737   30.6157    5.5943 H         1 UNK         0.0806 
    113 H113       28.6979   29.0669    6.0251 H         1 UNK         0.0806 
    114 H114       28.6954   30.3857    7.1808 H         1 UNK         0.0806 
    115 H115       32.0270   31.6981    6.9031 H         1 UNK         0.3010 
    116 H116       32.7435   33.6270    7.6325 H         1 UNK         0.0829 
    117 H117       30.4385   34.1363    8.4890 H         1 UNK         0.0813 
    118 H118       31.3149   35.5831    8.0206 H         1 UNK         0.0813 
    119 H119       30.0612   34.9502    6.9700 H         1 UNK         0.0813 
    120 H120       32.2069   32.9903    4.4777 H         1 UNK         0.3038 
    121 H121       33.3904   35.5195    3.4286 H         1 UNK         0.0769 
    122 H122       32.8656   34.5776    1.2102 H         1 UNK         0.0811 
    123 H123       31.4174   34.6199    2.2032 H         1 UNK         0.0811 
    124 H124       32.2596   33.0971    1.9323 H         1 UNK         0.0811 
    125 H125       33.9238   31.9662    3.5892 H         1 UNK         0.3204 
    126 H126       36.8576   32.4265    3.5239 H         1 UNK         0.0748 
    127 H127       37.1934   30.6978    1.8109 H         1 UNK         0.0771 
    128 H128       35.4686   30.4018    1.6885 H         1 UNK         0.0771 
    129 H129       36.1445   31.9404    1.1488 H         1 UNK         0.0771 
    130 H130       34.1126   30.5981    4.7506 H         1 UNK         0.2980 
    131 H131       35.9139   29.1851    6.5529 H         1 UNK         0.0545 
    132 H132       34.2348   27.6285    8.0271 H         1 UNK         0.3459 
    133 H133       33.0305   28.6641    8.7445 H         1 UNK         0.3459 
    134 H134       34.9368   26.9507    6.1025 H         1 UNK         0.0616 
    135 H135       35.7786   27.5754    4.7259 H         1 UNK         0.0616 
    136 H136       33.1576   25.4131    5.4689 H         1 UNK         0.0634 
    137 H137       32.1744   26.6862    6.1618 H         1 UNK         0.0634 
@<TRIPOS>BOND
     1    1    2 1    
     2    1   72 1    
     3    1   73 1    
     4    1   74 1    
     5    2    3 2    
     6    2    4 am   BACKBONE|DICT|INTERRES
     7    4    5 1    
     8    4   75 1    
     9    5    6 1    
    10    5   35 1    
    11    5   76 1    
    12    6    7 1    
    13    6   77 1    
    14    6   78 1    
    15    7    8 1    
    16    8    9 1    
    17    8   79 1    
    18    8   80 1    
    19    9   10 ar   
    20    9   14 ar   
    21   10   11 ar   
    22   10   81 1    
    23   11   12 ar   
    24   11   71 1    
    25   12   13 ar   
    26   12   82 1    
    27   13   14 ar   
    28   13   15 1    
    29   14   83 1    
    30   15   16 1    
    31   15   84 1    
    32   15   85 1    
    33   16   17 1    
    34   17   18 1    
    35   17   86 1    
    36   17   87 1    
    37   18   19 1    
    38   18   37 1    
    39   18   88 1    
    40   19   20 am   BACKBONE|DICT|INTERRES
    41   19   89 1    
    42   20   21 2    
    43   20   22 1    
    44   22   23 1    
    45   22   24 1    
    46   22   90 1    
    47   23   91 1    
    48   23   92 1    
    49   23   93 1    
    50   24   25 am   BACKBONE|DICT|INTERRES
    51   24   94 1    
    52   25   26 2    
    53   25   27 1    
    54   27   28 1    
    55   27   29 1    
    56   27   95 1    
    57   28   96 1    
    58   28   97 1    
    59   28   98 1    
    60   29   30 am   BACKBONE|DICT|INTERRES
    61   29   99 1    
    62   30   31 2    
    63   30   32 1    
    64   32   33 1    
    65   32   34 1    
    66   32  100 1    
    67   33  101 1    
    68   33  102 1    
    69   33  103 1    
    70   34   35 am   BACKBONE|DICT|INTERRES
    71   34  104 1    
    72   35   36 2    
    73   37   38 2    
    74   37   39 am   BACKBONE|DICT|INTERRES
    75   39   40 1    
    76   39  105 1    
    77   40   41 1    
    78   40   42 1    
    79   40  106 1    
    80   41  107 1    
    81   41  108 1    
    82   41  109 1    
    83   42   43 2    
    84   42   44 am   BACKBONE|DICT|INTERRES
    85   44   45 1    
    86   44  110 1    
    87   45   46 1    
    88   45   47 1    
    89   45  111 1    
    90   46  112 1    
    91   46  113 1    
    92   46  114 1    
    93   47   48 2    
    94   47   49 am   BACKBONE|DICT|INTERRES
    95   49   50 1    
    96   49  115 1    
    97   50   51 1    
    98   50   52 1    
    99   50  116 1    
   100   51  117 1    
   101   51  118 1    
   102   51  119 1    
   103   52   53 2    
   104   52   54 am   BACKBONE|DICT|INTERRES
   105   54   55 1    
   106   54  120 1    
   107   55   56 1    
   108   55   57 1    
   109   55  121 1    
   110   56  122 1    
   111   56  123 1    
   112   56  124 1    
   113   57   58 2    
   114   57   59 am   BACKBONE|DICT|INTERRES
   115   59   60 1    
   116   59  125 1    
   117   60   61 1    
   118   60   62 1    
   119   60  126 1    
   120   61  127 1    
   121   61  128 1    
   122   61  129 1    
   123   62   63 2    
   124   62   64 am   BACKBONE|DICT|INTERRES
   125   64   65 1    
   126   64  130 1    
   127   65   66 1    
   128   65   69 1    
   129   65  131 1    
   130   66   67 am   BACKBONE|DICT|INTERRES
   131   66   68 2    
   132   67  132 1    
   133   67  133 1    
   134   69   70 1    
   135   69  134 1    
   136   69  135 1    
   137   70   71 1    
   138   71  136 1    
   139   71  137 1    
@<TRIPOS>SUBSTRUCTURE
     1 UNK         1 GROUP             0       ****    0 ROOT    
