@<TRIPOS>MOLECULE
3R136
137   139    1
SMALL
USER_CHARGES


@<TRIPOS>ATOM
      1 CA         29.8091   21.0501   -4.0695 C.3       0 UNK        -0.1979 
      2 C          29.0591   22.2869   -3.5975 C.2       0 UNK         0.4864 
      3 O          28.4023   22.9482   -4.4025 O.2       0 UNK        -0.5359 
      4 N          29.1464   22.6003   -2.2974 N.am      1 UNK        -0.4318 
      5 CA         28.5208   23.7761   -1.6733 C.3       1 UNK         0.0824 
      6 C6         29.2293   24.1841   -0.3564 C.3       12 UNK        -0.0944 
      7 S7         30.9902   24.5754   -0.6229 S.3       12 UNK        -0.2672 
      8 C8         31.8053   23.5703    0.6550 C.3       12 UNK         0.0333 
      9 C9         31.7133   24.2246    2.0258 C.ar      12 UNK        -0.0807 
     10 C10        32.6479   25.1954    2.3992 C.ar      12 UNK        -0.0894 
     11 C11        32.5967   25.7816    3.6671 C.ar      12 UNK        -0.0804 
     12 C12        31.5925   25.3977    4.5610 C.ar      12 UNK        -0.0824 
     13 C13        30.6468   24.4337    4.1968 C.ar      12 UNK        -0.0762 
     14 C14        30.7165   23.8451    2.9302 C.ar      12 UNK        -0.0782 
     15 C15        29.5610   24.0140    5.1791 C.3       12 UNK         0.0230 
     16 S16        27.9048   24.5674    4.6592 S.3       12 UNK        -0.2608 
     17 C17        28.1077   26.3824    4.6268 C.3       12 UNK        -0.0989 
     18 CA         28.2449   26.9132    3.1743 C.3       5 UNK         0.0716 
     19 N          27.0631   26.6173    2.3533 N.am      5 UNK        -0.4135 
     20 C          25.8422   27.1689    2.4518 C.2       4 UNK         0.5031 
     21 O          25.5484   28.0983    3.2040 O.2       4 UNK        -0.5229 
     22 CA         24.7463   26.5457    1.5717 C.3       4 UNK         0.0329 
     23 CB         24.7547   27.1721    0.1679 C.3       4 UNK        -0.2001 
     24 N          24.8901   25.0889    1.4762 N.am      4 UNK        -0.4303 
     25 C          24.5804   24.2416    2.4728 C.2       3 UNK         0.5044 
     26 O          24.0616   24.6099    3.5282 O.2       3 UNK        -0.5152 
     27 CA         24.9256   22.7453    2.2968 C.3       3 UNK         0.0319 
     28 CB         23.8629   21.8174    2.9242 C.3       3 UNK        -0.2001 
     29 N          25.2278   22.3437    0.9172 N.am      3 UNK        -0.4354 
     30 C          24.4052   22.3654   -0.1433 C.2       2 UNK         0.4964 
     31 O          23.2128   22.6688   -0.0821 O.2       2 UNK        -0.5047 
     32 CA         25.0427   22.0193   -1.5071 C.3       2 UNK         0.0288 
     33 CB         24.2489   22.6094   -2.6925 C.3       2 UNK        -0.2113 
     34 N          26.4639   22.3912   -1.6194 N.am      2 UNK        -0.4145 
     35 C          27.0033   23.6098   -1.4383 C.2       1 UNK         0.5006 
     36 O          26.3557   24.5862   -1.0585 O.2       1 UNK        -0.5103 
     37 C          28.6290   28.4060    3.1126 C.2       5 UNK         0.5055 
     38 O          28.6581   29.0850    4.1404 O.2       5 UNK        -0.5220 
     39 N          28.8969   28.8890    1.8935 N.am      6 UNK        -0.4450 
     40 CA         29.2465   30.2804    1.6058 C.3       6 UNK         0.0367 
     41 CB         27.9671   31.0784    1.2850 C.3       6 UNK        -0.1929 
     42 C          30.3022   30.3589    0.4912 C.2       6 UNK         0.5070 
     43 O          30.2473   31.2632   -0.3432 O.2       6 UNK        -0.5237 
     44 N          31.2464   29.4057    0.4824 N.am      7 UNK        -0.4739 
     45 CA         32.3582   29.3541   -0.4767 C.3       7 UNK         0.0276 
     46 CB         33.0115   27.9645   -0.4233 C.3       7 UNK        -0.1927 
     47 C          33.4137   30.4511   -0.2438 C.2       7 UNK         0.5013 
     48 O          34.1094   30.8352   -1.1848 O.2       7 UNK        -0.5193 
     49 N          33.5044   30.9347    0.9977 N.am      8 UNK        -0.4253 
     50 CA         34.3571   32.0216    1.4556 C.3       8 UNK         0.0242 
     51 CB         35.7594   31.4769    1.7858 C.3       8 UNK        -0.2000 
     52 C          33.6964   32.6316    2.6959 C.2       8 UNK         0.4948 
     53 O          32.8295   31.9954    3.3016 O.2       8 UNK        -0.5275 
     54 N          34.1487   33.8287    3.0914 N.am      9 UNK        -0.4246 
     55 CA         33.6709   34.5507    4.2798 C.3       9 UNK         0.0261 
     56 CB         34.3058   35.9508    4.3093 C.3       9 UNK        -0.1959 
     57 C          33.9221   33.8170    5.6135 C.2       9 UNK         0.5033 
     58 O          33.2337   34.0976    6.5953 O.2       9 UNK        -0.5390 
     59 N          34.8921   32.8929    5.6236 N.am      10 UNK        -0.4215 
     60 CA         35.2119   32.0176    6.7504 C.3       10 UNK         0.0240 
     61 CB         36.6271   31.4496    6.5491 C.3       10 UNK        -0.1982 
     62 C          34.2020   30.8716    6.9558 C.2       10 UNK         0.4970 
     63 O          34.1856   30.2977    8.0459 O.2       10 UNK        -0.4916 
     64 N          33.4086   30.5295    5.9295 N.am      11 UNK        -0.4279 
     65 CA         32.4113   29.4507    5.9906 C.3       11 UNK         0.1003 
     66 C          31.1920   29.8210    6.8784 C.2       11 UNK         0.5709 
     67 N          30.6224   28.8530    7.5847 N.am      11 UNK        -0.7358 
     68 O          30.7429   30.9652    6.9134 O.2       11 UNK        -0.4999 
     69 C69        31.9471   28.9967    4.5826 C.3       12 UNK        -0.0954 
     70 S70        33.3094   28.4727    3.4906 S.3       12 UNK        -0.2268 
     71 C71        33.6588   26.7888    4.0859 C.3       12 UNK         0.0203 
     72 H72        29.1135   20.3299   -4.4994 H         1 UNK         0.0888 
     73 H73        30.5349   21.3221   -4.8355 H         1 UNK         0.0888 
     74 H74        30.3439   20.5613   -3.2553 H         1 UNK         0.0888 
     75 H75        29.7181   22.0332   -1.6876 H         1 UNK         0.3017 
     76 H76        28.6213   24.6126   -2.3688 H         1 UNK         0.0873 
     77 H77        29.1285   23.3950    0.3900 H         1 UNK         0.0745 
     78 H78        28.7666   25.0737    0.0746 H         1 UNK         0.0745 
     79 H79        31.3788   22.5662    0.6718 H         1 UNK         0.0705 
     80 H80        32.8544   23.4463    0.3823 H         1 UNK         0.0705 
     81 H81        33.4261   25.4848    1.7062 H         1 UNK         0.1334 
     82 H82        31.5547   25.8427    5.5456 H         1 UNK         0.1417 
     83 H83        29.9925   23.0912    2.6534 H         1 UNK         0.1562 
     84 H84        29.7683   24.3987    6.1790 H         1 UNK         0.0748 
     85 H85        29.5575   22.9266    5.2667 H         1 UNK         0.0748 
     86 H86        28.9768   26.6573    5.2270 H         1 UNK         0.0940 
     87 H87        27.2479   26.8375    5.1218 H         1 UNK         0.0940 
     88 H88        29.0774   26.3817    2.7103 H         1 UNK         0.0703 
     89 H89        27.1690   25.8565    1.7000 H         1 UNK         0.3081 
     90 H90        23.7799   26.7660    2.0305 H         1 UNK         0.0719 
     91 H91        24.5546   28.2431    0.2209 H         1 UNK         0.0809 
     92 H92        25.7170   27.0478   -0.3296 H         1 UNK         0.0809 
     93 H93        23.9890   26.7294   -0.4694 H         1 UNK         0.0809 
     94 H94        25.2948   24.7264    0.6180 H         1 UNK         0.2990 
     95 H95        25.8519   22.5971    2.8541 H         1 UNK         0.0690 
     96 H96        24.1323   20.7679    2.8062 H         1 UNK         0.0788 
     97 H97        22.8797   21.9648    2.4765 H         1 UNK         0.0788 
     98 H98        23.7617   22.0044    3.9940 H         1 UNK         0.0788 
     99 H99        26.1863   22.0732    0.7485 H         1 UNK         0.2993 
    100 H100       24.9998   20.9320   -1.5887 H         1 UNK         0.0949 
    101 H101       24.1997   23.6979   -2.6417 H         1 UNK         0.0767 
    102 H102       24.7020   22.3393   -3.6465 H         1 UNK         0.0767 
    103 H103       23.2239   22.2365   -2.7060 H         1 UNK         0.0767 
    104 H104       27.0882   21.6500   -1.9052 H         1 UNK         0.3013 
    105 H105       28.8466   28.2705    1.0951 H         1 UNK         0.3121 
    106 H106       29.7140   30.7299    2.4849 H         1 UNK         0.0774 
    107 H107       27.4735   30.7012    0.3887 H         1 UNK         0.0815 
    108 H108       27.2527   31.0278    2.1070 H         1 UNK         0.0815 
    109 H109       28.1916   32.1326    1.1184 H         1 UNK         0.0815 
    110 H110       31.2402   28.7051    1.2104 H         1 UNK         0.2987 
    111 H111       31.9515   29.5017   -1.4797 H         1 UNK         0.0949 
    112 H112       33.4351   27.7518    0.5582 H         1 UNK         0.0806 
    113 H113       32.2915   27.1821   -0.6569 H         1 UNK         0.0806 
    114 H114       33.8205   27.8851   -1.1507 H         1 UNK         0.0806 
    115 H115       32.8712   30.5894    1.7096 H         1 UNK         0.3010 
    116 H116       34.4214   32.7867    0.6789 H         1 UNK         0.0829 
    117 H117       35.7212   30.7188    2.5697 H         1 UNK         0.0813 
    118 H118       36.4245   32.2709    2.1267 H         1 UNK         0.0813 
    119 H119       36.2242   31.0242    0.9097 H         1 UNK         0.0813 
    120 H120       34.8655   34.2846    2.5440 H         1 UNK         0.3038 
    121 H121       32.5896   34.6676    4.1796 H         1 UNK         0.0769 
    122 H122       34.0551   36.5206    3.4144 H         1 UNK         0.0811 
    123 H123       35.3928   35.9004    4.3841 H         1 UNK         0.0811 
    124 H124       33.9472   36.5242    5.1655 H         1 UNK         0.0811 
    125 H125       35.4141   32.7472    4.7726 H         1 UNK         0.3204 
    126 H126       35.2118   32.6186    7.6625 H         1 UNK         0.0748 
    127 H127       36.6934   30.8397    5.6469 H         1 UNK         0.0771 
    128 H128       37.3681   32.2457    6.4733 H         1 UNK         0.0771 
    129 H129       36.9184   30.8187    7.3903 H         1 UNK         0.0771 
    130 H130       33.4172   31.0716    5.0735 H         1 UNK         0.2980 
    131 H131       32.9012   28.5960    6.4606 H         1 UNK         0.0545 
    132 H132       30.9843   27.9133    7.5751 H         1 UNK         0.3459 
    133 H133       29.8216   29.0747    8.1549 H         1 UNK         0.3459 
    134 H134       31.4176   29.8097    4.0839 H         1 UNK         0.0616 
    135 H135       31.2321   28.1781    4.6613 H         1 UNK         0.0616 
    136 H136       34.6250   26.4785    3.6856 H         1 UNK         0.0634 
    137 H137       33.7754   26.7981    5.1701 H         1 UNK         0.0634 
@<TRIPOS>BOND
     1    1    2 1    
     2    1   72 1    
     3    1   73 1    
     4    1   74 1    
     5    2    3 2    
     6    2    4 am   BACKBONE|DICT|INTERRES
     7    4    5 1    
     8    4   75 1    
     9    5    6 1    
    10    5   35 1    
    11    5   76 1    
    12    6    7 1    
    13    6   77 1    
    14    6   78 1    
    15    7    8 1    
    16    8    9 1    
    17    8   79 1    
    18    8   80 1    
    19    9   10 ar   
    20    9   14 ar   
    21   10   11 ar   
    22   10   81 1    
    23   11   12 ar   
    24   11   71 1    
    25   12   13 ar   
    26   12   82 1    
    27   13   14 ar   
    28   13   15 1    
    29   14   83 1    
    30   15   16 1    
    31   15   84 1    
    32   15   85 1    
    33   16   17 1    
    34   17   18 1    
    35   17   86 1    
    36   17   87 1    
    37   18   19 1    
    38   18   37 1    
    39   18   88 1    
    40   19   20 am   BACKBONE|DICT|INTERRES
    41   19   89 1    
    42   20   21 2    
    43   20   22 1    
    44   22   23 1    
    45   22   24 1    
    46   22   90 1    
    47   23   91 1    
    48   23   92 1    
    49   23   93 1    
    50   24   25 am   BACKBONE|DICT|INTERRES
    51   24   94 1    
    52   25   26 2    
    53   25   27 1    
    54   27   28 1    
    55   27   29 1    
    56   27   95 1    
    57   28   96 1    
    58   28   97 1    
    59   28   98 1    
    60   29   30 am   BACKBONE|DICT|INTERRES
    61   29   99 1    
    62   30   31 2    
    63   30   32 1    
    64   32   33 1    
    65   32   34 1    
    66   32  100 1    
    67   33  101 1    
    68   33  102 1    
    69   33  103 1    
    70   34   35 am   BACKBONE|DICT|INTERRES
    71   34  104 1    
    72   35   36 2    
    73   37   38 2    
    74   37   39 am   BACKBONE|DICT|INTERRES
    75   39   40 1    
    76   39  105 1    
    77   40   41 1    
    78   40   42 1    
    79   40  106 1    
    80   41  107 1    
    81   41  108 1    
    82   41  109 1    
    83   42   43 2    
    84   42   44 am   BACKBONE|DICT|INTERRES
    85   44   45 1    
    86   44  110 1    
    87   45   46 1    
    88   45   47 1    
    89   45  111 1    
    90   46  112 1    
    91   46  113 1    
    92   46  114 1    
    93   47   48 2    
    94   47   49 am   BACKBONE|DICT|INTERRES
    95   49   50 1    
    96   49  115 1    
    97   50   51 1    
    98   50   52 1    
    99   50  116 1    
   100   51  117 1    
   101   51  118 1    
   102   51  119 1    
   103   52   53 2    
   104   52   54 am   BACKBONE|DICT|INTERRES
   105   54   55 1    
   106   54  120 1    
   107   55   56 1    
   108   55   57 1    
   109   55  121 1    
   110   56  122 1    
   111   56  123 1    
   112   56  124 1    
   113   57   58 2    
   114   57   59 am   BACKBONE|DICT|INTERRES
   115   59   60 1    
   116   59  125 1    
   117   60   61 1    
   118   60   62 1    
   119   60  126 1    
   120   61  127 1    
   121   61  128 1    
   122   61  129 1    
   123   62   63 2    
   124   62   64 am   BACKBONE|DICT|INTERRES
   125   64   65 1    
   126   64  130 1    
   127   65   66 1    
   128   65   69 1    
   129   65  131 1    
   130   66   67 am   BACKBONE|DICT|INTERRES
   131   66   68 2    
   132   67  132 1    
   133   67  133 1    
   134   69   70 1    
   135   69  134 1    
   136   69  135 1    
   137   70   71 1    
   138   71  136 1    
   139   71  137 1    
@<TRIPOS>SUBSTRUCTURE
     1 UNK         1 GROUP             0       ****    0 ROOT    
