@<TRIPOS>MOLECULE
3R136
137   139    1
SMALL
USER_CHARGES


@<TRIPOS>ATOM
      1 CA         30.1568   21.9749    4.6355 C.3       0 UNK        -0.1979 
      2 C          29.3947   21.4065    3.4471 C.2       0 UNK         0.4864 
      3 O          29.4100   20.1930    3.2343 O.2       0 UNK        -0.5359 
      4 N          28.7291   22.2775    2.6817 N.am      1 UNK        -0.4318 
      5 CA         27.9375   21.9529    1.4954 C.3       1 UNK         0.0824 
      6 C6         28.6132   22.3770    0.1595 C.3       12 UNK        -0.0944 
      7 S7         30.3617   21.8837   -0.0248 S.3       12 UNK        -0.2672 
      8 C8         31.1967   23.5040   -0.1138 C.3       12 UNK         0.0333 
      9 C9         31.4365   24.1158    1.2616 C.ar      12 UNK        -0.0807 
     10 C10        32.6897   24.0027    1.8708 C.ar      12 UNK        -0.0894 
     11 C11        32.9290   24.5911    3.1161 C.ar      12 UNK        -0.0804 
     12 C12        31.9032   25.2881    3.7602 C.ar      12 UNK        -0.0824 
     13 C13        30.6418   25.3983    3.1693 C.ar      12 UNK        -0.0762 
     14 C14        30.4196   24.8163    1.9177 C.ar      12 UNK        -0.0782 
     15 C15        29.5190   26.1217    3.9000 C.3       12 UNK         0.0230 
     16 S16        29.1853   27.7624    3.1885 S.3       12 UNK        -0.2608 
     17 C17        28.0220   27.3683    1.8350 C.3       12 UNK        -0.0989 
     18 CA         28.6598   27.4930    0.4275 C.3       5 UNK         0.0716 
     19 N          27.8572   26.7921   -0.5744 N.am      5 UNK        -0.4135 
     20 C          28.2349   26.5509   -1.8364 C.2       4 UNK         0.5031 
     21 O          29.3388   26.8653   -2.2841 O.2       4 UNK        -0.5229 
     22 CA         27.2445   25.8074   -2.7557 C.3       4 UNK         0.0329 
     23 CB         27.8550   24.4864   -3.2560 C.3       4 UNK        -0.2001 
     24 N          25.9435   25.5156   -2.1445 N.am      4 UNK        -0.4303 
     25 C          24.9461   26.3871   -1.9565 C.2       3 UNK         0.5044 
     26 O          25.0311   27.5816   -2.2402 O.2       3 UNK        -0.5152 
     27 CA         23.6322   25.8551   -1.3450 C.3       3 UNK         0.0319 
     28 CB         22.6845   25.3526   -2.4517 C.3       3 UNK        -0.2001 
     29 N          23.7726   24.8519   -0.2730 N.am      3 UNK        -0.4354 
     30 C          24.2777   23.6117   -0.3403 C.2       2 UNK         0.4964 
     31 O          24.7691   23.1180   -1.3581 O.2       2 UNK        -0.5047 
     32 CA         24.2327   22.7726    0.9461 C.3       2 UNK         0.0288 
     33 CB         23.1093   21.7258    0.8707 C.3       2 UNK        -0.2113 
     34 N          25.5165   22.0955    1.1298 N.am      2 UNK        -0.4145 
     35 C          26.6022   22.6988    1.6275 C.2       1 UNK         0.5006 
     36 O          26.5937   23.8327    2.1177 O.2       1 UNK        -0.5103 
     37 C          28.8815   28.9711    0.0535 C.2       5 UNK         0.5055 
     38 O          27.9193   29.6760   -0.2610 O.2       5 UNK        -0.5220 
     39 N          30.1322   29.4294    0.1860 N.am      6 UNK        -0.4450 
     40 CA         30.4985   30.8431    0.2305 C.3       6 UNK         0.0367 
     41 CB         31.9349   31.0126   -0.2982 C.3       6 UNK        -0.1929 
     42 C          30.3511   31.3095    1.6863 C.2       6 UNK         0.5070 
     43 O          31.3506   31.4422    2.3945 O.2       6 UNK        -0.5237 
     44 N          29.0963   31.4753    2.1262 N.am      7 UNK        -0.4739 
     45 CA         28.6805   31.6390    3.5265 C.3       7 UNK         0.0276 
     46 CB         27.1458   31.6917    3.5865 C.3       7 UNK        -0.1927 
     47 C          29.2934   32.8350    4.2771 C.2       7 UNK         0.5013 
     48 O          29.3305   32.8133    5.5076 O.2       7 UNK        -0.5193 
     49 N          29.7830   33.8386    3.5366 N.am      8 UNK        -0.4253 
     50 CA         30.5553   34.9654    4.0653 C.3       8 UNK         0.0242 
     51 CB         30.7051   36.0319    2.9681 C.3       8 UNK        -0.2000 
     52 C          31.9388   34.5564    4.6101 C.2       8 UNK         0.4948 
     53 O          32.4682   35.2598    5.4718 O.2       8 UNK        -0.5275 
     54 N          32.4947   33.4464    4.1044 N.am      9 UNK        -0.4246 
     55 CA         33.7686   32.8705    4.5331 C.3       9 UNK         0.0261 
     56 CB         34.6896   32.6979    3.3129 C.3       9 UNK        -0.1959 
     57 C          33.5531   31.5260    5.2408 C.2       9 UNK         0.5033 
     58 O          34.1194   31.3197    6.3145 O.2       9 UNK        -0.5390 
     59 N          32.7663   30.6301    4.6211 N.am      10 UNK        -0.4215 
     60 CA         32.4170   29.2736    5.0734 C.3       10 UNK         0.0240 
     61 CB         31.3819   29.3489    6.2143 C.3       10 UNK        -0.1982 
     62 C          33.6355   28.3916    5.4297 C.2       10 UNK         0.4970 
     63 O          33.5618   27.5917    6.3640 O.2       10 UNK        -0.4916 
     64 N          34.7360   28.5765    4.6870 N.am      11 UNK        -0.4279 
     65 CA         36.0644   27.9768    4.9123 C.3       11 UNK         0.1003 
     66 C          36.8010   28.4819    6.1926 C.2       11 UNK         0.5709 
     67 N          36.3550   29.5433    6.8546 N.am      11 UNK        -0.7358 
     68 O          37.8250   27.9228    6.5794 O.2       11 UNK        -0.4999 
     69 C69        36.0851   26.4240    4.7958 C.3       12 UNK        -0.0954 
     70 S70        35.3944   25.8156    3.2191 S.3       12 UNK        -0.2268 
     71 C71        34.2945   24.4731    3.7699 C.3       12 UNK         0.0203 
     72 H72        29.8619   23.0009    4.8542 H         1 UNK         0.0888 
     73 H73        29.9735   21.3748    5.5263 H         1 UNK         0.0888 
     74 H74        31.2270   21.9666    4.4295 H         1 UNK         0.0888 
     75 H75        28.6930   23.2519    2.9448 H         1 UNK         0.3017 
     76 H76        27.7353   20.8800    1.4684 H         1 UNK         0.0873 
     77 H77        28.5373   23.4540    0.0041 H         1 UNK         0.0745 
     78 H78        28.0667   21.9335   -0.6749 H         1 UNK         0.0745 
     79 H79        30.6230   24.1911   -0.7381 H         1 UNK         0.0705 
     80 H80        32.1498   23.3673   -0.6270 H         1 UNK         0.0705 
     81 H81        33.4849   23.4657    1.3715 H         1 UNK         0.1334 
     82 H82        32.0887   25.7387    4.7260 H         1 UNK         0.1417 
     83 H83        29.4477   24.9007    1.4571 H         1 UNK         0.1562 
     84 H84        29.7833   26.2573    4.9499 H         1 UNK         0.0748 
     85 H85        28.6129   25.5143    3.8995 H         1 UNK         0.0748 
     86 H86        27.1514   28.0213    1.9276 H         1 UNK         0.0940 
     87 H87        27.6350   26.3601    1.9865 H         1 UNK         0.0940 
     88 H88        29.6344   27.0025    0.4394 H         1 UNK         0.0703 
     89 H89        26.9194   26.5364   -0.3064 H         1 UNK         0.3081 
     90 H90        27.0756   26.4506   -3.6219 H         1 UNK         0.0719 
     91 H91        28.8034   24.6579   -3.7671 H         1 UNK         0.0809 
     92 H92        28.0475   23.7942   -2.4365 H         1 UNK         0.0809 
     93 H93        27.1942   23.9883   -3.9658 H         1 UNK         0.0809 
     94 H94        25.7486   24.5444   -1.9087 H         1 UNK         0.2990 
     95 H95        23.1496   26.7129   -0.8735 H         1 UNK         0.0690 
     96 H96        21.7159   25.0638   -2.0434 H         1 UNK         0.0788 
     97 H97        23.0946   24.4924   -2.9819 H         1 UNK         0.0788 
     98 H98        22.5033   26.1322   -3.1930 H         1 UNK         0.0788 
     99 H99        23.4264   25.1579    0.6266 H         1 UNK         0.2993 
    100 H100       24.0422   23.4246    1.8020 H         1 UNK         0.0949 
    101 H101       23.2432   21.0470    0.0271 H         1 UNK         0.0767 
    102 H102       23.0649   21.1260    1.7801 H         1 UNK         0.0767 
    103 H103       22.1368   22.2056    0.7515 H         1 UNK         0.0767 
    104 H104       25.6111   21.1887    0.6951 H         1 UNK         0.3013 
    105 H105       30.8472   28.7820    0.4864 H         1 UNK         0.3121 
    106 H106       29.8283   31.4340   -0.3977 H         1 UNK         0.0774 
    107 H107       32.2448   32.0574   -0.2524 H         1 UNK         0.0815 
    108 H108       32.6556   30.4339    0.2811 H         1 UNK         0.0815 
    109 H109       32.0122   30.6967   -1.3386 H         1 UNK         0.0815 
    110 H110       28.3506   31.3171    1.4605 H         1 UNK         0.2987 
    111 H111       29.0077   30.7433    4.0584 H         1 UNK         0.0949 
    112 H112       26.7018   30.7849    3.1749 H         1 UNK         0.0806 
    113 H113       26.7963   31.7808    4.6163 H         1 UNK         0.0806 
    114 H114       26.7498   32.5436    3.0323 H         1 UNK         0.0806 
    115 H115       29.6953   33.7703    2.5331 H         1 UNK         0.3010 
    116 H116       29.9927   35.4009    4.8941 H         1 UNK         0.0829 
    117 H117       31.2502   35.6495    2.1041 H         1 UNK         0.0813 
    118 H118       31.2523   36.8993    3.3402 H         1 UNK         0.0813 
    119 H119       29.7338   36.3877    2.6239 H         1 UNK         0.0813 
    120 H120       31.9691   32.9094    3.4199 H         1 UNK         0.3038 
    121 H121       34.2701   33.5353    5.2397 H         1 UNK         0.0769 
    122 H122       34.9158   33.6603    2.8536 H         1 UNK         0.0811 
    123 H123       34.2410   32.0629    2.5476 H         1 UNK         0.0811 
    124 H124       35.6399   32.2459    3.6005 H         1 UNK         0.0811 
    125 H125       32.3368   30.9070    3.7372 H         1 UNK         0.3204 
    126 H126       31.9353   28.7868    4.2240 H         1 UNK         0.0748 
    127 H127       31.8106   29.7867    7.1164 H         1 UNK         0.0771 
    128 H128       30.5197   29.9507    5.9273 H         1 UNK         0.0771 
    129 H129       31.0096   28.3571    6.4739 H         1 UNK         0.0771 
    130 H130       34.6929   29.2568    3.9435 H         1 UNK         0.2980 
    131 H131       36.6761   28.3571    4.0937 H         1 UNK         0.0545 
    132 H132       36.8584   29.8536    7.6699 H         1 UNK         0.3459 
    133 H133       35.5169   30.0405    6.5668 H         1 UNK         0.3459 
    134 H134       35.5620   25.9803    5.6428 H         1 UNK         0.0616 
    135 H135       37.1096   26.0526    4.8531 H         1 UNK         0.0616 
    136 H136       34.1785   24.4740    4.8539 H         1 UNK         0.0634 
    137 H137       34.7519   23.5156    3.5170 H         1 UNK         0.0634 
@<TRIPOS>BOND
     1    1    2 1    
     2    1   72 1    
     3    1   73 1    
     4    1   74 1    
     5    2    3 2    
     6    2    4 am   BACKBONE|DICT|INTERRES
     7    4    5 1    
     8    4   75 1    
     9    5    6 1    
    10    5   35 1    
    11    5   76 1    
    12    6    7 1    
    13    6   77 1    
    14    6   78 1    
    15    7    8 1    
    16    8    9 1    
    17    8   79 1    
    18    8   80 1    
    19    9   10 ar   
    20    9   14 ar   
    21   10   11 ar   
    22   10   81 1    
    23   11   12 ar   
    24   11   71 1    
    25   12   13 ar   
    26   12   82 1    
    27   13   14 ar   
    28   13   15 1    
    29   14   83 1    
    30   15   16 1    
    31   15   84 1    
    32   15   85 1    
    33   16   17 1    
    34   17   18 1    
    35   17   86 1    
    36   17   87 1    
    37   18   19 1    
    38   18   37 1    
    39   18   88 1    
    40   19   20 am   BACKBONE|DICT|INTERRES
    41   19   89 1    
    42   20   21 2    
    43   20   22 1    
    44   22   23 1    
    45   22   24 1    
    46   22   90 1    
    47   23   91 1    
    48   23   92 1    
    49   23   93 1    
    50   24   25 am   BACKBONE|DICT|INTERRES
    51   24   94 1    
    52   25   26 2    
    53   25   27 1    
    54   27   28 1    
    55   27   29 1    
    56   27   95 1    
    57   28   96 1    
    58   28   97 1    
    59   28   98 1    
    60   29   30 am   BACKBONE|DICT|INTERRES
    61   29   99 1    
    62   30   31 2    
    63   30   32 1    
    64   32   33 1    
    65   32   34 1    
    66   32  100 1    
    67   33  101 1    
    68   33  102 1    
    69   33  103 1    
    70   34   35 am   BACKBONE|DICT|INTERRES
    71   34  104 1    
    72   35   36 2    
    73   37   38 2    
    74   37   39 am   BACKBONE|DICT|INTERRES
    75   39   40 1    
    76   39  105 1    
    77   40   41 1    
    78   40   42 1    
    79   40  106 1    
    80   41  107 1    
    81   41  108 1    
    82   41  109 1    
    83   42   43 2    
    84   42   44 am   BACKBONE|DICT|INTERRES
    85   44   45 1    
    86   44  110 1    
    87   45   46 1    
    88   45   47 1    
    89   45  111 1    
    90   46  112 1    
    91   46  113 1    
    92   46  114 1    
    93   47   48 2    
    94   47   49 am   BACKBONE|DICT|INTERRES
    95   49   50 1    
    96   49  115 1    
    97   50   51 1    
    98   50   52 1    
    99   50  116 1    
   100   51  117 1    
   101   51  118 1    
   102   51  119 1    
   103   52   53 2    
   104   52   54 am   BACKBONE|DICT|INTERRES
   105   54   55 1    
   106   54  120 1    
   107   55   56 1    
   108   55   57 1    
   109   55  121 1    
   110   56  122 1    
   111   56  123 1    
   112   56  124 1    
   113   57   58 2    
   114   57   59 am   BACKBONE|DICT|INTERRES
   115   59   60 1    
   116   59  125 1    
   117   60   61 1    
   118   60   62 1    
   119   60  126 1    
   120   61  127 1    
   121   61  128 1    
   122   61  129 1    
   123   62   63 2    
   124   62   64 am   BACKBONE|DICT|INTERRES
   125   64   65 1    
   126   64  130 1    
   127   65   66 1    
   128   65   69 1    
   129   65  131 1    
   130   66   67 am   BACKBONE|DICT|INTERRES
   131   66   68 2    
   132   67  132 1    
   133   67  133 1    
   134   69   70 1    
   135   69  134 1    
   136   69  135 1    
   137   70   71 1    
   138   71  136 1    
   139   71  137 1    
@<TRIPOS>SUBSTRUCTURE
     1 UNK         1 GROUP             0       ****    0 ROOT    
