@<TRIPOS>MOLECULE
3R136
137   139    1
SMALL
USER_CHARGES


@<TRIPOS>ATOM
      1 CA         27.1280   23.2932   -2.1797 C.3       0 UNK        -0.1979 
      2 C          27.9976   23.6364   -0.9805 C.2       0 UNK         0.4864 
      3 O          27.9164   24.7554   -0.4693 O.2       0 UNK        -0.5359 
      4 N          28.8168   22.6795   -0.5247 N.am      1 UNK        -0.4318 
      5 CA         29.7299   22.7988    0.6178 C.3       1 UNK         0.0824 
      6 C6         30.5627   21.5087    0.8263 C.3       12 UNK        -0.0944 
      7 S7         31.5452   21.0850   -0.6554 S.3       12 UNK        -0.2672 
      8 C8         33.2149   21.6579   -0.1998 C.3       12 UNK         0.0333 
      9 C9         33.2283   23.1180    0.2316 C.ar      12 UNK        -0.0807 
     10 C10        33.5019   23.4504    1.5614 C.ar      12 UNK        -0.0894 
     11 C11        33.4875   24.7840    1.9764 C.ar      12 UNK        -0.0804 
     12 C12        33.1981   25.7900    1.0502 C.ar      12 UNK        -0.0824 
     13 C13        32.9065   25.4696   -0.2797 C.ar      12 UNK        -0.0762 
     14 C14        32.9413   24.1326   -0.6878 C.ar      12 UNK        -0.0782 
     15 C15        32.5329   26.5629   -1.2716 C.3       12 UNK         0.0230 
     16 S16        30.7267   26.7996   -1.3617 S.3       12 UNK        -0.2608 
     17 C17        30.3756   27.4871    0.2907 C.3       12 UNK        -0.0989 
     18 CA         29.1166   28.3921    0.3439 C.3       5 UNK         0.0716 
     19 N          27.9160   27.6719   -0.1039 N.am      5 UNK        -0.4135 
     20 C          26.7682   28.2269   -0.5199 C.2       4 UNK         0.5031 
     21 O          26.5774   29.4423   -0.5686 O.2       4 UNK        -0.5229 
     22 CA         25.6191   27.2736   -0.8654 C.3       4 UNK         0.0329 
     23 CB         25.7829   26.7160   -2.2884 C.3       4 UNK        -0.2001 
     24 N          25.5689   26.1788    0.1044 N.am      4 UNK        -0.4303 
     25 C          24.8006   26.1722    1.2012 C.2       3 UNK         0.5044 
     26 O          23.9783   27.0481    1.4727 O.2       3 UNK        -0.5152 
     27 CA         24.9806   24.9851    2.1611 C.3       3 UNK         0.0319 
     28 CB         24.3702   23.7049    1.5670 C.3       3 UNK        -0.2001 
     29 N          26.3775   24.7341    2.5197 N.am      3 UNK        -0.4354 
     30 C          27.1619   25.5455    3.2411 C.2       2 UNK         0.4964 
     31 O          26.7898   26.6315    3.6816 O.2       2 UNK        -0.5047 
     32 CA         28.6006   25.0772    3.5454 C.3       2 UNK         0.0288 
     33 CB         28.6479   24.2705    4.8581 C.3       2 UNK        -0.2113 
     34 N          29.2719   24.3610    2.4484 N.am      2 UNK        -0.4145 
     35 C          28.9582   23.1804    1.8952 C.2       1 UNK         0.5006 
     36 O          28.0562   22.4418    2.2982 O.2       1 UNK        -0.5103 
     37 C          28.9499   29.0387    1.7461 C.2       5 UNK         0.5055 
     38 O          29.9056   29.0545    2.5244 O.2       5 UNK        -0.5220 
     39 N          27.7494   29.5402    2.0631 N.am      6 UNK        -0.4450 
     40 CA         27.3712   30.0655    3.3749 C.3       6 UNK         0.0367 
     41 CB         25.8394   30.0469    3.5058 C.3       6 UNK        -0.1929 
     42 C          27.9167   31.4767    3.6348 C.2       6 UNK         0.5070 
     43 O          28.3372   31.7618    4.7555 O.2       6 UNK        -0.5237 
     44 N          27.8927   32.3371    2.6063 N.am      7 UNK        -0.4739 
     45 CA         28.4141   33.7074    2.6740 C.3       7 UNK         0.0276 
     46 CB         27.8387   34.5371    1.5145 C.3       7 UNK        -0.1927 
     47 C          29.9504   33.7343    2.6558 C.2       7 UNK         0.5013 
     48 O          30.5621   34.4913    3.4097 O.2       7 UNK        -0.5193 
     49 N          30.5325   32.8828    1.8077 N.am      8 UNK        -0.4253 
     50 CA         31.9548   32.5990    1.6931 C.3       8 UNK         0.0242 
     51 CB         32.6582   33.6820    0.8563 C.3       8 UNK        -0.2000 
     52 C          32.0556   31.2225    1.0176 C.2       8 UNK         0.4948 
     53 O          31.2692   30.9665    0.1058 O.2       8 UNK        -0.5275 
     54 N          32.9764   30.3325    1.4103 N.am      9 UNK        -0.4246 
     55 CA         33.9823   30.4682    2.4672 C.3       9 UNK         0.0261 
     56 CB         35.0835   29.4212    2.2239 C.3       9 UNK        -0.1959 
     57 C          33.4365   30.3381    3.9039 C.2       9 UNK         0.5033 
     58 O          34.2218   30.4981    4.8378 O.2       9 UNK        -0.5390 
     59 N          32.1429   30.0205    4.0789 N.am      10 UNK        -0.4215 
     60 CA         31.4065   29.8505    5.3454 C.3       10 UNK         0.0240 
     61 CB         31.4684   31.1199    6.2186 C.3       10 UNK        -0.1982 
     62 C          31.7810   28.5894    6.1488 C.2       10 UNK         0.4970 
     63 O          30.9509   28.1070    6.9199 O.2       10 UNK        -0.4916 
     64 N          32.9930   28.0656    5.9322 N.am      11 UNK        -0.4279 
     65 CA         33.5275   26.7969    6.4518 C.3       11 UNK         0.1003 
     66 C          33.8633   26.8033    7.9735 C.2       11 UNK         0.5709 
     67 N          33.9109   27.9530    8.6363 N.am      11 UNK        -0.7358 
     68 O          34.1195   25.7541    8.5600 O.2       11 UNK        -0.4999 
     69 C69        32.6971   25.5476    6.0278 C.3       12 UNK        -0.0954 
     70 S70        32.1920   25.5228    4.2734 S.3       12 UNK        -0.2268 
     71 C71        33.7518   25.1329    3.4322 C.3       12 UNK         0.0203 
     72 H72        26.0827   23.5087   -1.9606 H         1 UNK         0.0888 
     73 H73        27.4277   23.8890   -3.0411 H         1 UNK         0.0888 
     74 H74        27.2063   22.2406   -2.4512 H         1 UNK         0.0888 
     75 H75        28.8334   21.7826   -0.9878 H         1 UNK         0.3017 
     76 H76        30.4145   23.6150    0.3824 H         1 UNK         0.0873 
     77 H77        31.2272   21.6087    1.6864 H         1 UNK         0.0745 
     78 H78        29.9083   20.6638    1.0501 H         1 UNK         0.0745 
     79 H79        33.8793   21.5291   -1.0553 H         1 UNK         0.0705 
     80 H80        33.6052   21.0147    0.5905 H         1 UNK         0.0705 
     81 H81        33.7124   22.6692    2.2792 H         1 UNK         0.1334 
     82 H82        33.1711   26.8193    1.3768 H         1 UNK         0.1417 
     83 H83        32.7105   23.8762   -1.7132 H         1 UNK         0.1562 
     84 H84        32.9022   26.3015   -2.2644 H         1 UNK         0.0748 
     85 H85        33.0166   27.5046   -1.0083 H         1 UNK         0.0748 
     86 H86        31.2502   28.0593    0.5997 H         1 UNK         0.0940 
     87 H87        30.2849   26.6615    0.9966 H         1 UNK         0.0940 
     88 H88        29.2773   29.2179   -0.3518 H         1 UNK         0.0703 
     89 H89        27.9938   26.6585   -0.1338 H         1 UNK         0.3081 
     90 H90        24.6854   27.8394   -0.8345 H         1 UNK         0.0719 
     91 H91        26.7469   26.2269   -2.4275 H         1 UNK         0.0809 
     92 H92        25.0006   25.9951   -2.5258 H         1 UNK         0.0809 
     93 H93        25.7205   27.5175   -3.0255 H         1 UNK         0.0809 
     94 H94        26.2699   25.4504   -0.0087 H         1 UNK         0.2990 
     95 H95        24.4419   25.2211    3.0813 H         1 UNK         0.0690 
     96 H96        24.8998   23.3800    0.6705 H         1 UNK         0.0788 
     97 H97        23.3259   23.8607    1.2922 H         1 UNK         0.0788 
     98 H98        24.3961   22.8849    2.2850 H         1 UNK         0.0788 
     99 H99        26.7731   23.8392    2.2459 H         1 UNK         0.2993 
    100 H100       29.1863   25.9856    3.7001 H         1 UNK         0.0949 
    101 H101       28.0464   23.3629    4.8032 H         1 UNK         0.0767 
    102 H102       29.6679   23.9817    5.1108 H         1 UNK         0.0767 
    103 H103       28.2646   24.8632    5.6897 H         1 UNK         0.0767 
    104 H104       30.0331   24.8731    2.0263 H         1 UNK         0.3013 
    105 H105       27.0392   29.5391    1.3384 H         1 UNK         0.3121 
    106 H106       27.7836   29.4021    4.1389 H         1 UNK         0.0774 
    107 H107       25.5282   30.4065    4.4874 H         1 UNK         0.0815 
    108 H108       25.3591   30.6791    2.7580 H         1 UNK         0.0815 
    109 H109       25.4448   29.0367    3.3924 H         1 UNK         0.0815 
    110 H110       27.5154   32.0262    1.7226 H         1 UNK         0.2987 
    111 H111       28.0850   34.1599    3.6125 H         1 UNK         0.0949 
    112 H112       28.1176   34.1285    0.5425 H         1 UNK         0.0806 
    113 H113       26.7504   34.5807    1.5607 H         1 UNK         0.0806 
    114 H114       28.2042   35.5643    1.5528 H         1 UNK         0.0806 
    115 H115       29.9531   32.2877    1.2291 H         1 UNK         0.3010 
    116 H116       32.3785   32.5853    2.6961 H         1 UNK         0.0829 
    117 H117       33.7223   33.4661    0.7553 H         1 UNK         0.0813 
    118 H118       32.2404   33.7481   -0.1492 H         1 UNK         0.0813 
    119 H119       32.5694   34.6645    1.3202 H         1 UNK         0.0813 
    120 H120       33.0027   29.4577    0.9109 H         1 UNK         0.3038 
    121 H121       34.4414   31.4550    2.3831 H         1 UNK         0.0769 
    122 H122       35.9031   29.5415    2.9338 H         1 UNK         0.0811 
    123 H123       35.5117   29.5162    1.2258 H         1 UNK         0.0811 
    124 H124       34.7082   28.4037    2.3345 H         1 UNK         0.0811 
    125 H125       31.5780   29.8057    3.2604 H         1 UNK         0.3204 
    126 H126       30.3638   29.7159    5.0549 H         1 UNK         0.0748 
    127 H127       30.8021   31.0301    7.0774 H         1 UNK         0.0771 
    128 H128       32.4700   31.3075    6.6055 H         1 UNK         0.0771 
    129 H129       31.1521   31.9994    5.6570 H         1 UNK         0.0771 
    130 H130       33.6279   28.6103    5.3618 H         1 UNK         0.2980 
    131 H131       34.5002   26.6990    5.9698 H         1 UNK         0.0545 
    132 H132       34.1401   27.9486    9.6175 H         1 UNK         0.3459 
    133 H133       33.7146   28.8213    8.1650 H         1 UNK         0.3459 
    134 H134       33.2527   24.6316    6.2357 H         1 UNK         0.0616 
    135 H135       31.7857   25.4856    6.6247 H         1 UNK         0.0616 
    136 H136       34.4249   25.9892    3.4952 H         1 UNK         0.0634 
    137 H137       34.2459   24.3048    3.9428 H         1 UNK         0.0634 
@<TRIPOS>BOND
     1    1    2 1    
     2    1   72 1    
     3    1   73 1    
     4    1   74 1    
     5    2    3 2    
     6    2    4 am   BACKBONE|DICT|INTERRES
     7    4    5 1    
     8    4   75 1    
     9    5    6 1    
    10    5   35 1    
    11    5   76 1    
    12    6    7 1    
    13    6   77 1    
    14    6   78 1    
    15    7    8 1    
    16    8    9 1    
    17    8   79 1    
    18    8   80 1    
    19    9   10 ar   
    20    9   14 ar   
    21   10   11 ar   
    22   10   81 1    
    23   11   12 ar   
    24   11   71 1    
    25   12   13 ar   
    26   12   82 1    
    27   13   14 ar   
    28   13   15 1    
    29   14   83 1    
    30   15   16 1    
    31   15   84 1    
    32   15   85 1    
    33   16   17 1    
    34   17   18 1    
    35   17   86 1    
    36   17   87 1    
    37   18   19 1    
    38   18   37 1    
    39   18   88 1    
    40   19   20 am   BACKBONE|DICT|INTERRES
    41   19   89 1    
    42   20   21 2    
    43   20   22 1    
    44   22   23 1    
    45   22   24 1    
    46   22   90 1    
    47   23   91 1    
    48   23   92 1    
    49   23   93 1    
    50   24   25 am   BACKBONE|DICT|INTERRES
    51   24   94 1    
    52   25   26 2    
    53   25   27 1    
    54   27   28 1    
    55   27   29 1    
    56   27   95 1    
    57   28   96 1    
    58   28   97 1    
    59   28   98 1    
    60   29   30 am   BACKBONE|DICT|INTERRES
    61   29   99 1    
    62   30   31 2    
    63   30   32 1    
    64   32   33 1    
    65   32   34 1    
    66   32  100 1    
    67   33  101 1    
    68   33  102 1    
    69   33  103 1    
    70   34   35 am   BACKBONE|DICT|INTERRES
    71   34  104 1    
    72   35   36 2    
    73   37   38 2    
    74   37   39 am   BACKBONE|DICT|INTERRES
    75   39   40 1    
    76   39  105 1    
    77   40   41 1    
    78   40   42 1    
    79   40  106 1    
    80   41  107 1    
    81   41  108 1    
    82   41  109 1    
    83   42   43 2    
    84   42   44 am   BACKBONE|DICT|INTERRES
    85   44   45 1    
    86   44  110 1    
    87   45   46 1    
    88   45   47 1    
    89   45  111 1    
    90   46  112 1    
    91   46  113 1    
    92   46  114 1    
    93   47   48 2    
    94   47   49 am   BACKBONE|DICT|INTERRES
    95   49   50 1    
    96   49  115 1    
    97   50   51 1    
    98   50   52 1    
    99   50  116 1    
   100   51  117 1    
   101   51  118 1    
   102   51  119 1    
   103   52   53 2    
   104   52   54 am   BACKBONE|DICT|INTERRES
   105   54   55 1    
   106   54  120 1    
   107   55   56 1    
   108   55   57 1    
   109   55  121 1    
   110   56  122 1    
   111   56  123 1    
   112   56  124 1    
   113   57   58 2    
   114   57   59 am   BACKBONE|DICT|INTERRES
   115   59   60 1    
   116   59  125 1    
   117   60   61 1    
   118   60   62 1    
   119   60  126 1    
   120   61  127 1    
   121   61  128 1    
   122   61  129 1    
   123   62   63 2    
   124   62   64 am   BACKBONE|DICT|INTERRES
   125   64   65 1    
   126   64  130 1    
   127   65   66 1    
   128   65   69 1    
   129   65  131 1    
   130   66   67 am   BACKBONE|DICT|INTERRES
   131   66   68 2    
   132   67  132 1    
   133   67  133 1    
   134   69   70 1    
   135   69  134 1    
   136   69  135 1    
   137   70   71 1    
   138   71  136 1    
   139   71  137 1    
@<TRIPOS>SUBSTRUCTURE
     1 UNK         1 GROUP             0       ****    0 ROOT    
