@<TRIPOS>MOLECULE
3R136
137   139    1
SMALL
USER_CHARGES


@<TRIPOS>ATOM
      1 CA         28.4031   23.1268   -1.4482 C.3       0 UNK        -0.1979 
      2 C          28.3356   23.9533   -0.1745 C.2       0 UNK         0.4864 
      3 O          27.7849   25.0541   -0.1944 O.2       0 UNK        -0.5359 
      4 N          28.8839   23.4303    0.9316 N.am      1 UNK        -0.4318 
      5 CA         29.0217   24.0940    2.2396 C.3       1 UNK         0.0824 
      6 C6         29.7693   23.1779    3.2467 C.3       12 UNK        -0.0944 
      7 S7         30.8825   24.0920    4.3685 S.3       12 UNK        -0.2672 
      8 C8         32.5199   23.7226    3.6574 C.3       12 UNK         0.0333 
      9 C9         32.8895   24.7160    2.5662 C.ar      12 UNK        -0.0807 
     10 C10        33.6965   25.8138    2.8711 C.ar      12 UNK        -0.0894 
     11 C11        34.0360   26.7446    1.8861 C.ar      12 UNK        -0.0804 
     12 C12        33.5730   26.5634    0.5798 C.ar      12 UNK        -0.0824 
     13 C13        32.7429   25.4811    0.2649 C.ar      12 UNK        -0.0762 
     14 C14        32.4218   24.5506    1.2593 C.ar      12 UNK        -0.0782 
     15 C15        32.1549   25.3317   -1.1360 C.3       12 UNK         0.0230 
     16 S16        31.2493   26.8148   -1.7073 S.3       12 UNK        -0.2608 
     17 C17        30.3322   27.3049   -0.2082 C.3       12 UNK        -0.0989 
     18 CA         29.1454   28.2557   -0.4950 C.3       5 UNK         0.0716 
     19 N          28.1205   27.6158   -1.3199 N.am      5 UNK        -0.4135 
     20 C          27.4752   28.2127   -2.3288 C.2       4 UNK         0.5031 
     21 O          27.6629   29.3826   -2.6662 O.2       4 UNK        -0.5229 
     22 CA         26.4355   27.3766   -3.0997 C.3       4 UNK         0.0329 
     23 CB         27.0935   26.7119   -4.3199 C.3       4 UNK        -0.2001 
     24 N          25.7394   26.3497   -2.3158 N.am      4 UNK        -0.4303 
     25 C          25.0496   26.5548   -1.1854 C.2       3 UNK         0.5044 
     26 O          24.9922   27.6419   -0.6114 O.2       3 UNK        -0.5152 
     27 CA         24.3058   25.3565   -0.5803 C.3       3 UNK         0.0319 
     28 CB         24.1931   24.1321   -1.5130 C.3       3 UNK        -0.2001 
     29 N          24.9773   24.9672    0.6562 N.am      3 UNK        -0.4354 
     30 C          24.3600   24.6425    1.8004 C.2       2 UNK         0.4964 
     31 O          23.1354   24.6575    1.9354 O.2       2 UNK        -0.5047 
     32 CA         25.2361   24.2128    2.9944 C.3       2 UNK         0.0288 
     33 CB         24.6317   23.0030    3.7324 C.3       2 UNK        -0.2113 
     34 N          26.6006   23.8721    2.5846 N.am      2 UNK        -0.4145 
     35 C          27.6901   24.6124    2.8289 C.2       1 UNK         0.5006 
     36 O          27.6736   25.6678    3.4616 O.2       1 UNK        -0.5103 
     37 C          28.5786   28.8003    0.8317 C.2       5 UNK         0.5055 
     38 O          29.3568   29.3779    1.5889 O.2       5 UNK        -0.5220 
     39 N          27.2747   28.6351    1.1192 N.am      6 UNK        -0.4450 
     40 CA         26.6568   28.9523    2.4196 C.3       6 UNK         0.0367 
     41 CB         25.1654   28.5868    2.3931 C.3       6 UNK        -0.1929 
     42 C          26.8361   30.4025    2.9095 C.2       6 UNK         0.5070 
     43 O          26.8179   30.6372    4.1179 O.2       6 UNK        -0.5237 
     44 N          27.0286   31.3429    1.9756 N.am      7 UNK        -0.4739 
     45 CA         27.3119   32.7528    2.2512 C.3       7 UNK         0.0276 
     46 CB         27.1135   33.5588    0.9567 C.3       7 UNK        -0.1927 
     47 C          28.7149   33.0166    2.8360 C.2       7 UNK         0.5013 
     48 O          28.9202   34.0892    3.4064 O.2       7 UNK        -0.5193 
     49 N          29.6544   32.0727    2.6819 N.am      8 UNK        -0.4253 
     50 CA         31.0452   32.2001    3.1247 C.3       8 UNK         0.0242 
     51 CB         31.8702   32.9407    2.0518 C.3       8 UNK        -0.2000 
     52 C          31.6252   30.8231    3.4864 C.2       8 UNK         0.4948 
     53 O          32.7518   30.5095    3.0991 O.2       8 UNK        -0.5275 
     54 N          30.8318   30.0157    4.2017 N.am      9 UNK        -0.4246 
     55 CA         31.1725   28.6542    4.6176 C.3       9 UNK         0.0261 
     56 CB         29.8784   27.9348    5.0323 C.3       9 UNK        -0.1959 
     57 C          32.2064   28.6218    5.7576 C.2       9 UNK         0.5033 
     58 O          32.4415   29.6397    6.4140 O.2       9 UNK        -0.5390 
     59 N          32.7723   27.4272    5.9871 N.am      10 UNK        -0.4215 
     60 CA         33.7549   27.0947    7.0298 C.3       10 UNK         0.0240 
     61 CB         33.1174   27.1907    8.4331 C.3       10 UNK        -0.1982 
     62 C          35.0784   27.8813    6.9122 C.2       10 UNK         0.4970 
     63 O          35.6434   28.2986    7.9253 O.2       10 UNK        -0.4916 
     64 N          35.5525   28.0559    5.6729 N.am      11 UNK        -0.4279 
     65 CA         36.8618   28.6295    5.3299 C.3       11 UNK         0.1003 
     66 C          38.0626   27.7662    5.8150 C.2       11 UNK         0.5709 
     67 N          39.2279   28.3744    5.9930 N.am      11 UNK        -0.7358 
     68 O          37.9585   26.5551    6.0057 O.2       11 UNK        -0.4999 
     69 C69        36.9550   28.9626    3.8137 C.3       12 UNK        -0.0954 
     70 S70        36.5564   27.5559    2.7146 S.3       12 UNK        -0.2268 
     71 C71        34.8469   27.9750    2.2573 C.3       12 UNK         0.0203 
     72 H72        28.7664   23.7414   -2.2716 H         1 UNK         0.0888 
     73 H73        29.0728   22.2735   -1.3441 H         1 UNK         0.0888 
     74 H74        27.4139   22.7543   -1.7097 H         1 UNK         0.0888 
     75 H75        29.2823   22.5037    0.8755 H         1 UNK         0.3017 
     76 H76        29.6352   24.9778    2.0590 H         1 UNK         0.0873 
     77 H77        29.0723   22.5936    3.8513 H         1 UNK         0.0745 
     78 H78        30.3639   22.4318    2.7185 H         1 UNK         0.0745 
     79 H79        33.2584   23.7608    4.4597 H         1 UNK         0.0705 
     80 H80        32.5559   22.7023    3.2735 H         1 UNK         0.0705 
     81 H81        34.0618   25.9451    3.8789 H         1 UNK         0.1334 
     82 H82        33.8172   27.2890   -0.1842 H         1 UNK         0.1417 
     83 H83        31.7901   23.7063    1.0228 H         1 UNK         0.1562 
     84 H84        31.4728   24.4812   -1.1773 H         1 UNK         0.0748 
     85 H85        32.9591   25.1146   -1.8400 H         1 UNK         0.0748 
     86 H86        31.0495   27.7841    0.4615 H         1 UNK         0.0940 
     87 H87        29.9893   26.4111    0.3098 H         1 UNK         0.0940 
     88 H88        29.5487   29.1222   -1.0233 H         1 UNK         0.0703 
     89 H89        27.9001   26.6507   -1.0795 H         1 UNK         0.3081 
     90 H90        25.6736   28.0707   -3.4601 H         1 UNK         0.0719 
     91 H91        27.8396   25.9738   -4.0220 H         1 UNK         0.0809 
     92 H92        26.3561   26.2122   -4.9485 H         1 UNK         0.0809 
     93 H93        27.5985   27.4514   -4.9433 H         1 UNK         0.0809 
     94 H94        25.7482   25.4151   -2.6962 H         1 UNK         0.2990 
     95 H95        23.2960   25.7116   -0.3644 H         1 UNK         0.0690 
     96 H96        23.7189   24.3962   -2.4593 H         1 UNK         0.0788 
     97 H97        23.5786   23.3551   -1.0577 H         1 UNK         0.0788 
     98 H98        25.1650   23.6906   -1.7328 H         1 UNK         0.0788 
     99 H99        25.9927   24.9923    0.6233 H         1 UNK         0.2993 
    100 H100       25.2490   25.0570    3.6872 H         1 UNK         0.0949 
    101 H101       25.2490   22.7098    4.5819 H         1 UNK         0.0767 
    102 H102       23.6396   23.2335    4.1229 H         1 UNK         0.0767 
    103 H103       24.5323   22.1382    3.0753 H         1 UNK         0.0767 
    104 H104       26.7083   23.0303    2.0365 H         1 UNK         0.3013 
    105 H105       26.6679   28.2042    0.4287 H         1 UNK         0.3121 
    106 H106       27.1383   28.3124    3.1598 H         1 UNK         0.0774 
    107 H107       24.6962   28.7805    3.3587 H         1 UNK         0.0815 
    108 H108       24.6226   29.1641    1.6439 H         1 UNK         0.0815 
    109 H109       25.0219   27.5300    2.1737 H         1 UNK         0.0815 
    110 H110       27.0339   31.0546    1.0078 H         1 UNK         0.2987 
    111 H111       26.5865   33.1053    2.9880 H         1 UNK         0.0949 
    112 H112       27.8053   33.2430    0.1747 H         1 UNK         0.0806 
    113 H113       26.0987   33.4518    0.5729 H         1 UNK         0.0806 
    114 H114       27.2812   34.6230    1.1291 H         1 UNK         0.0806 
    115 H115       29.4141   31.1890    2.2349 H         1 UNK         0.3010 
    116 H116       31.0763   32.7874    4.0449 H         1 UNK         0.0829 
    117 H117       31.4663   33.9333    1.8522 H         1 UNK         0.0813 
    118 H118       32.9040   33.0735    2.3733 H         1 UNK         0.0813 
    119 H119       31.8869   32.3890    1.1111 H         1 UNK         0.0813 
    120 H120       29.9285   30.3627    4.4886 H         1 UNK         0.3038 
    121 H121       31.5978   28.1341    3.7558 H         1 UNK         0.0769 
    122 H122       29.3840   28.4364    5.8650 H         1 UNK         0.0811 
    123 H123       30.0690   26.9057    5.3378 H         1 UNK         0.0811 
    124 H124       29.1764   27.8901    4.2007 H         1 UNK         0.0811 
    125 H125       32.4675   26.6504    5.4165 H         1 UNK         0.3204 
    126 H126       34.0208   26.0487    6.8693 H         1 UNK         0.0748 
    127 H127       33.7972   26.8151    9.1991 H         1 UNK         0.0771 
    128 H128       32.8688   28.2193    8.6961 H         1 UNK         0.0771 
    129 H129       32.2042   26.5988    8.4952 H         1 UNK         0.0771 
    130 H130       35.0402   27.6672    4.8986 H         1 UNK         0.2980 
    131 H131       36.9291   29.5757    5.8705 H         1 UNK         0.0545 
    132 H132       40.0212   27.8317    6.2967 H         1 UNK         0.3459 
    133 H133       39.3308   29.3644    5.8326 H         1 UNK         0.3459 
    134 H134       36.2866   29.7940    3.5838 H         1 UNK         0.0616 
    135 H135       37.9530   29.3231    3.5582 H         1 UNK         0.0616 
    136 H136       34.8607   28.7013    1.4432 H         1 UNK         0.0634 
    137 H137       34.3524   28.4646    3.0958 H         1 UNK         0.0634 
@<TRIPOS>BOND
     1    1    2 1    
     2    1   72 1    
     3    1   73 1    
     4    1   74 1    
     5    2    3 2    
     6    2    4 am   BACKBONE|DICT|INTERRES
     7    4    5 1    
     8    4   75 1    
     9    5    6 1    
    10    5   35 1    
    11    5   76 1    
    12    6    7 1    
    13    6   77 1    
    14    6   78 1    
    15    7    8 1    
    16    8    9 1    
    17    8   79 1    
    18    8   80 1    
    19    9   10 ar   
    20    9   14 ar   
    21   10   11 ar   
    22   10   81 1    
    23   11   12 ar   
    24   11   71 1    
    25   12   13 ar   
    26   12   82 1    
    27   13   14 ar   
    28   13   15 1    
    29   14   83 1    
    30   15   16 1    
    31   15   84 1    
    32   15   85 1    
    33   16   17 1    
    34   17   18 1    
    35   17   86 1    
    36   17   87 1    
    37   18   19 1    
    38   18   37 1    
    39   18   88 1    
    40   19   20 am   BACKBONE|DICT|INTERRES
    41   19   89 1    
    42   20   21 2    
    43   20   22 1    
    44   22   23 1    
    45   22   24 1    
    46   22   90 1    
    47   23   91 1    
    48   23   92 1    
    49   23   93 1    
    50   24   25 am   BACKBONE|DICT|INTERRES
    51   24   94 1    
    52   25   26 2    
    53   25   27 1    
    54   27   28 1    
    55   27   29 1    
    56   27   95 1    
    57   28   96 1    
    58   28   97 1    
    59   28   98 1    
    60   29   30 am   BACKBONE|DICT|INTERRES
    61   29   99 1    
    62   30   31 2    
    63   30   32 1    
    64   32   33 1    
    65   32   34 1    
    66   32  100 1    
    67   33  101 1    
    68   33  102 1    
    69   33  103 1    
    70   34   35 am   BACKBONE|DICT|INTERRES
    71   34  104 1    
    72   35   36 2    
    73   37   38 2    
    74   37   39 am   BACKBONE|DICT|INTERRES
    75   39   40 1    
    76   39  105 1    
    77   40   41 1    
    78   40   42 1    
    79   40  106 1    
    80   41  107 1    
    81   41  108 1    
    82   41  109 1    
    83   42   43 2    
    84   42   44 am   BACKBONE|DICT|INTERRES
    85   44   45 1    
    86   44  110 1    
    87   45   46 1    
    88   45   47 1    
    89   45  111 1    
    90   46  112 1    
    91   46  113 1    
    92   46  114 1    
    93   47   48 2    
    94   47   49 am   BACKBONE|DICT|INTERRES
    95   49   50 1    
    96   49  115 1    
    97   50   51 1    
    98   50   52 1    
    99   50  116 1    
   100   51  117 1    
   101   51  118 1    
   102   51  119 1    
   103   52   53 2    
   104   52   54 am   BACKBONE|DICT|INTERRES
   105   54   55 1    
   106   54  120 1    
   107   55   56 1    
   108   55   57 1    
   109   55  121 1    
   110   56  122 1    
   111   56  123 1    
   112   56  124 1    
   113   57   58 2    
   114   57   59 am   BACKBONE|DICT|INTERRES
   115   59   60 1    
   116   59  125 1    
   117   60   61 1    
   118   60   62 1    
   119   60  126 1    
   120   61  127 1    
   121   61  128 1    
   122   61  129 1    
   123   62   63 2    
   124   62   64 am   BACKBONE|DICT|INTERRES
   125   64   65 1    
   126   64  130 1    
   127   65   66 1    
   128   65   69 1    
   129   65  131 1    
   130   66   67 am   BACKBONE|DICT|INTERRES
   131   66   68 2    
   132   67  132 1    
   133   67  133 1    
   134   69   70 1    
   135   69  134 1    
   136   69  135 1    
   137   70   71 1    
   138   71  136 1    
   139   71  137 1    
@<TRIPOS>SUBSTRUCTURE
     1 UNK         1 GROUP             0       ****    0 ROOT    
