@<TRIPOS>MOLECULE
3R136
137   139    1
SMALL
USER_CHARGES


@<TRIPOS>ATOM
      1 CA         32.2845   28.3631   -0.3713 C.3       0 UNK        -0.1979 
      2 C          31.6339   27.0729   -0.8505 C.2       0 UNK         0.4864 
      3 O          31.6981   26.7618   -2.0403 O.2       0 UNK        -0.5359 
      4 N          31.0155   26.3304    0.0736 N.am      1 UNK        -0.4318 
      5 CA         30.2765   25.0864   -0.1456 C.3       1 UNK         0.0824 
      6 C6         31.1014   23.9759   -0.8649 C.3       12 UNK        -0.0944 
      7 S7         30.6018   22.2897   -0.3685 S.3       12 UNK        -0.2672 
      8 C8         31.7600   21.9365    0.9950 C.3       12 UNK         0.0333 
      9 C9         31.5503   22.8848    2.1665 C.ar      12 UNK        -0.0807 
     10 C10        32.3931   23.9874    2.3363 C.ar      12 UNK        -0.0894 
     11 C11        32.1697   24.8984    3.3711 C.ar      12 UNK        -0.0804 
     12 C12        31.1121   24.6839    4.2592 C.ar      12 UNK        -0.0824 
     13 C13        30.2617   23.5844    4.1022 C.ar      12 UNK        -0.0762 
     14 C14        30.4885   22.6856    3.0550 C.ar      12 UNK        -0.0782 
     15 C15        29.0983   23.3659    5.0615 C.3       12 UNK         0.0230 
     16 S16        27.5306   24.0430    4.4179 S.3       12 UNK        -0.2608 
     17 C17        27.8529   25.8373    4.4616 C.3       12 UNK        -0.0989 
     18 CA         28.0409   26.4113    3.0295 C.3       5 UNK         0.0716 
     19 N          26.7865   26.6996    2.3175 N.am      5 UNK        -0.4135 
     20 C          25.8258   27.5701    2.6661 C.2       4 UNK         0.5031 
     21 O          25.8354   28.2168    3.7152 O.2       4 UNK        -0.5229 
     22 CA         24.6803   27.8109    1.6689 C.3       4 UNK         0.0329 
     23 CB         24.9596   29.0745    0.8391 C.3       4 UNK        -0.2001 
     24 N          24.4403   26.6859    0.7643 N.am      4 UNK        -0.4303 
     25 C          23.7817   25.5680    1.1019 C.2       3 UNK         0.5044 
     26 O          23.3040   25.3648    2.2185 O.2       3 UNK        -0.5152 
     27 CA         23.6147   24.4982    0.0057 C.3       3 UNK         0.0319 
     28 CB         22.2504   24.6479   -0.6869 C.3       3 UNK        -0.2001 
     29 N          24.6758   24.5260   -1.0072 N.am      3 UNK        -0.4354 
     30 C          25.9511   24.1910   -0.7704 C.2       2 UNK         0.4964 
     31 O          26.3478   23.7867    0.3250 O.2       2 UNK        -0.5047 
     32 CA         26.9408   24.3169   -1.9486 C.3       2 UNK         0.0288 
     33 CB         26.6117   25.4827   -2.9105 C.3       2 UNK        -0.2113 
     34 N          28.3295   24.3985   -1.4800 N.am      2 UNK        -0.4145 
     35 C          28.8698   25.3597   -0.7163 C.2       1 UNK         0.5006 
     36 O          28.2767   26.3938   -0.3949 O.2       1 UNK        -0.5103 
     37 C          29.0069   27.6126    3.0039 C.2       5 UNK         0.5055 
     38 O          30.0929   27.5071    2.4340 O.2       5 UNK        -0.5220 
     39 N          28.5928   28.7479    3.5750 N.am      6 UNK        -0.4450 
     40 CA         29.3289   30.0115    3.5723 C.3       6 UNK         0.0367 
     41 CB         29.0205   30.7737    4.8737 C.3       6 UNK        -0.1929 
     42 C          29.0170   30.8346    2.3069 C.2       6 UNK         0.5070 
     43 O          28.6864   32.0164    2.4054 O.2       6 UNK        -0.5237 
     44 N          29.1166   30.1964    1.1316 N.am      7 UNK        -0.4739 
     45 CA         28.8273   30.7977   -0.1781 C.3       7 UNK         0.0276 
     46 CB         28.6367   29.6815   -1.2183 C.3       7 UNK        -0.1927 
     47 C          29.8909   31.8047   -0.6593 C.2       7 UNK         0.5013 
     48 O          29.6204   32.5625   -1.5918 O.2       7 UNK        -0.5193 
     49 N          31.0694   31.7940   -0.0267 N.am      8 UNK        -0.4253 
     50 CA         32.1727   32.7238   -0.2684 C.3       8 UNK         0.0242 
     51 CB         33.1832   32.1174   -1.2586 C.3       8 UNK        -0.2000 
     52 C          32.8324   33.0901    1.0651 C.2       8 UNK         0.4948 
     53 O          32.9694   34.2746    1.3716 O.2       8 UNK        -0.5275 
     54 N          33.1839   32.0674    1.8521 N.am      9 UNK        -0.4246 
     55 CA         33.6567   32.1689    3.2268 C.3       9 UNK         0.0261 
     56 CB         35.1897   32.2981    3.2491 C.3       9 UNK        -0.1959 
     57 C          33.1951   30.9047    3.9569 C.2       9 UNK         0.5033 
     58 O          33.0199   29.8666    3.3115 O.2       9 UNK        -0.5390 
     59 N          32.9960   31.0135    5.2748 N.am      10 UNK        -0.4215 
     60 CA         32.6111   29.8984    6.1399 C.3       10 UNK         0.0240 
     61 CB         32.0214   30.4533    7.4471 C.3       10 UNK        -0.1982 
     62 C          33.8123   28.9853    6.4325 C.2       10 UNK         0.4970 
     63 O          34.9348   29.4776    6.5713 O.2       10 UNK        -0.4916 
     64 N          33.5374   27.6835    6.5539 N.am      11 UNK        -0.4279 
     65 CA         34.5261   26.6328    6.8490 C.3       11 UNK         0.1003 
     66 C          34.5726   26.2317    8.3527 C.2       11 UNK         0.5709 
     67 N          33.7713   26.8260    9.2299 N.am      11 UNK        -0.7358 
     68 O          35.3661   25.3762    8.7381 O.2       11 UNK        -0.4999 
     69 C69        34.3182   25.3989    5.9297 C.3       12 UNK        -0.0954 
     70 S70        34.6858   25.7694    4.1805 S.3       12 UNK        -0.2268 
     71 C71        33.0413   26.1396    3.4938 C.3       12 UNK         0.0203 
     72 H72        32.0165   28.5959    0.6597 H         1 UNK         0.0888 
     73 H73        33.3692   28.2767   -0.4277 H         1 UNK         0.0888 
     74 H74        31.9774   29.1952   -1.0033 H         1 UNK         0.0888 
     75 H75        30.9087   26.7103    1.0133 H         1 UNK         0.3017 
     76 H76        30.0733   24.7377    0.8656 H         1 UNK         0.0873 
     77 H77        32.1622   24.0890   -0.6374 H         1 UNK         0.0745 
     78 H78        31.0334   24.0712   -1.9501 H         1 UNK         0.0745 
     79 H79        32.7855   21.9953    0.6267 H         1 UNK         0.0705 
     80 H80        31.6135   20.9077    1.3271 H         1 UNK         0.0705 
     81 H81        33.2064   24.1576    1.6442 H         1 UNK         0.1334 
     82 H82        30.9428   25.3854    5.0632 H         1 UNK         0.1417 
     83 H83        29.8259   21.8414    2.9183 H         1 UNK         0.1562 
     84 H84        29.3152   23.8078    6.0354 H         1 UNK         0.0748 
     85 H85        28.9695   22.2972    5.2398 H         1 UNK         0.0748 
     86 H86        28.7263   26.0204    5.0880 H         1 UNK         0.0940 
     87 H87        27.0292   26.3226    4.9855 H         1 UNK         0.0940 
     88 H88        28.5336   25.6444    2.4308 H         1 UNK         0.0703 
     89 H89        26.7087   26.2521    1.4134 H         1 UNK         0.3081 
     90 H90        23.7735   27.9855    2.2524 H         1 UNK         0.0719 
     91 H91        24.1164   29.3202    0.1932 H         1 UNK         0.0809 
     92 H92        25.1336   29.9372    1.4842 H         1 UNK         0.0809 
     93 H93        25.8414   28.9566    0.2105 H         1 UNK         0.0809 
     94 H94        24.7927   26.7693   -0.1780 H         1 UNK         0.2990 
     95 H95        23.6415   23.5225    0.4961 H         1 UNK         0.0690 
     96 H96        21.4374   24.6034    0.0394 H         1 UNK         0.0788 
     97 H97        22.0808   23.8480   -1.4081 H         1 UNK         0.0788 
     98 H98        22.1652   25.5998   -1.2128 H         1 UNK         0.0788 
     99 H99        24.4167   24.8348   -1.9334 H         1 UNK         0.2993 
    100 H100       26.8654   23.3850   -2.5110 H         1 UNK         0.0949 
    101 H101       26.5250   26.4353   -2.3865 H         1 UNK         0.0767 
    102 H102       27.3865   25.5947   -3.6692 H         1 UNK         0.0767 
    103 H103       25.6751   25.3113   -3.4417 H         1 UNK         0.0767 
    104 H104       28.8828   23.5618   -1.6140 H         1 UNK         0.3013 
    105 H105       27.6363   28.7691    3.9226 H         1 UNK         0.3121 
    106 H106       30.3985   29.8000    3.5605 H         1 UNK         0.0774 
    107 H107       27.9683   31.0538    4.9373 H         1 UNK         0.0815 
    108 H108       29.6095   31.6895    4.9391 H         1 UNK         0.0815 
    109 H109       29.2605   30.1729    5.7509 H         1 UNK         0.0815 
    110 H110       29.3865   29.2204    1.1433 H         1 UNK         0.2987 
    111 H111       27.8860   31.3458   -0.0955 H         1 UNK         0.0949 
    112 H112       29.5445   29.0981   -1.3628 H         1 UNK         0.0806 
    113 H113       27.8455   28.9925   -0.9278 H         1 UNK         0.0806 
    114 H114       28.3602   30.0948   -2.1892 H         1 UNK         0.0806 
    115 H115       31.1576   31.1790    0.7679 H         1 UNK         0.3010 
    116 H116       31.7813   33.6489   -0.6980 H         1 UNK         0.0829 
    117 H117       32.7149   31.9084   -2.2205 H         1 UNK         0.0813 
    118 H118       34.0077   32.8073   -1.4432 H         1 UNK         0.0813 
    119 H119       33.6134   31.1868   -0.8877 H         1 UNK         0.0813 
    120 H120       33.0539   31.1107    1.5485 H         1 UNK         0.3038 
    121 H121       33.2038   33.0387    3.7083 H         1 UNK         0.0769 
    122 H122       35.6720   31.4400    2.7790 H         1 UNK         0.0811 
    123 H123       35.5631   32.3629    4.2719 H         1 UNK         0.0811 
    124 H124       35.5194   33.1957    2.7256 H         1 UNK         0.0811 
    125 H125       33.2113   31.8873    5.7332 H         1 UNK         0.3204 
    126 H126       31.8389   29.3166    5.6310 H         1 UNK         0.0748 
    127 H127       32.7584   31.0258    8.0122 H         1 UNK         0.0771 
    128 H128       31.1688   31.1046    7.2541 H         1 UNK         0.0771 
    129 H129       31.6703   29.6472    8.0924 H         1 UNK         0.0771 
    130 H130       32.5824   27.3718    6.4657 H         1 UNK         0.2980 
    131 H131       35.5249   27.0200    6.6392 H         1 UNK         0.0545 
    132 H132       33.1303   27.5447    8.9378 H         1 UNK         0.3459 
    133 H133       33.8214   26.5584   10.2004 H         1 UNK         0.3459 
    134 H134       34.9882   24.5870    6.2179 H         1 UNK         0.0616 
    135 H135       33.3079   25.0020    6.0309 H         1 UNK         0.0616 
    136 H136       33.1708   26.5823    2.5051 H         1 UNK         0.0634 
    137 H137       32.5485   26.9048    4.0942 H         1 UNK         0.0634 
@<TRIPOS>BOND
     1    1    2 1    
     2    1   72 1    
     3    1   73 1    
     4    1   74 1    
     5    2    3 2    
     6    2    4 am   BACKBONE|DICT|INTERRES
     7    4    5 1    
     8    4   75 1    
     9    5    6 1    
    10    5   35 1    
    11    5   76 1    
    12    6    7 1    
    13    6   77 1    
    14    6   78 1    
    15    7    8 1    
    16    8    9 1    
    17    8   79 1    
    18    8   80 1    
    19    9   10 ar   
    20    9   14 ar   
    21   10   11 ar   
    22   10   81 1    
    23   11   12 ar   
    24   11   71 1    
    25   12   13 ar   
    26   12   82 1    
    27   13   14 ar   
    28   13   15 1    
    29   14   83 1    
    30   15   16 1    
    31   15   84 1    
    32   15   85 1    
    33   16   17 1    
    34   17   18 1    
    35   17   86 1    
    36   17   87 1    
    37   18   19 1    
    38   18   37 1    
    39   18   88 1    
    40   19   20 am   BACKBONE|DICT|INTERRES
    41   19   89 1    
    42   20   21 2    
    43   20   22 1    
    44   22   23 1    
    45   22   24 1    
    46   22   90 1    
    47   23   91 1    
    48   23   92 1    
    49   23   93 1    
    50   24   25 am   BACKBONE|DICT|INTERRES
    51   24   94 1    
    52   25   26 2    
    53   25   27 1    
    54   27   28 1    
    55   27   29 1    
    56   27   95 1    
    57   28   96 1    
    58   28   97 1    
    59   28   98 1    
    60   29   30 am   BACKBONE|DICT|INTERRES
    61   29   99 1    
    62   30   31 2    
    63   30   32 1    
    64   32   33 1    
    65   32   34 1    
    66   32  100 1    
    67   33  101 1    
    68   33  102 1    
    69   33  103 1    
    70   34   35 am   BACKBONE|DICT|INTERRES
    71   34  104 1    
    72   35   36 2    
    73   37   38 2    
    74   37   39 am   BACKBONE|DICT|INTERRES
    75   39   40 1    
    76   39  105 1    
    77   40   41 1    
    78   40   42 1    
    79   40  106 1    
    80   41  107 1    
    81   41  108 1    
    82   41  109 1    
    83   42   43 2    
    84   42   44 am   BACKBONE|DICT|INTERRES
    85   44   45 1    
    86   44  110 1    
    87   45   46 1    
    88   45   47 1    
    89   45  111 1    
    90   46  112 1    
    91   46  113 1    
    92   46  114 1    
    93   47   48 2    
    94   47   49 am   BACKBONE|DICT|INTERRES
    95   49   50 1    
    96   49  115 1    
    97   50   51 1    
    98   50   52 1    
    99   50  116 1    
   100   51  117 1    
   101   51  118 1    
   102   51  119 1    
   103   52   53 2    
   104   52   54 am   BACKBONE|DICT|INTERRES
   105   54   55 1    
   106   54  120 1    
   107   55   56 1    
   108   55   57 1    
   109   55  121 1    
   110   56  122 1    
   111   56  123 1    
   112   56  124 1    
   113   57   58 2    
   114   57   59 am   BACKBONE|DICT|INTERRES
   115   59   60 1    
   116   59  125 1    
   117   60   61 1    
   118   60   62 1    
   119   60  126 1    
   120   61  127 1    
   121   61  128 1    
   122   61  129 1    
   123   62   63 2    
   124   62   64 am   BACKBONE|DICT|INTERRES
   125   64   65 1    
   126   64  130 1    
   127   65   66 1    
   128   65   69 1    
   129   65  131 1    
   130   66   67 am   BACKBONE|DICT|INTERRES
   131   66   68 2    
   132   67  132 1    
   133   67  133 1    
   134   69   70 1    
   135   69  134 1    
   136   69  135 1    
   137   70   71 1    
   138   71  136 1    
   139   71  137 1    
@<TRIPOS>SUBSTRUCTURE
     1 UNK         1 GROUP             0       ****    0 ROOT    
