@<TRIPOS>MOLECULE
3R136
137   139    1
SMALL
USER_CHARGES


@<TRIPOS>ATOM
      1 CA         30.1997   19.1381    0.9115 C.3       0 UNK        -0.1979 
      2 C          30.0773   20.0686   -0.2860 C.2       0 UNK         0.4864 
      3 O          29.8491   19.6027   -1.4029 O.2       0 UNK        -0.5359 
      4 N          30.2186   21.3816   -0.0600 N.am      1 UNK        -0.4318 
      5 CA         30.1392   22.4294   -1.0876 C.3       1 UNK         0.0824 
      6 C6         31.0519   23.6334   -0.7333 C.3       12 UNK        -0.0944 
      7 S7         30.4923   24.5941    0.7124 S.3       12 UNK        -0.2672 
      8 C8         31.6336   24.0607    2.0207 C.3       12 UNK         0.0333 
      9 C9         31.1681   24.6221    3.3528 C.ar      12 UNK        -0.0807 
     10 C10        31.8688   25.6558    3.9783 C.ar      12 UNK        -0.0894 
     11 C11        31.3972   26.2135    5.1714 C.ar      12 UNK        -0.0804 
     12 C12        30.2131   25.7303    5.7372 C.ar      12 UNK        -0.0824 
     13 C13        29.5002   24.7023    5.1115 C.ar      12 UNK        -0.0762 
     14 C14        29.9946   24.1373    3.9342 C.ar      12 UNK        -0.0782 
     15 C15        28.1653   24.2361    5.6689 C.3       12 UNK         0.0230 
     16 S16        26.8438   25.4465    5.3391 S.3       12 UNK        -0.2608 
     17 C17        26.8721   25.6108    3.5139 C.3       12 UNK        -0.0989 
     18 CA         27.6548   26.8407    2.9697 C.3       5 UNK         0.0716 
     19 N          27.7282   26.7965    1.5005 N.am      5 UNK        -0.4135 
     20 C          28.3393   27.7002    0.7133 C.2       4 UNK         0.5031 
     21 O          29.0258   28.6215    1.1487 O.2       4 UNK        -0.5229 
     22 CA         28.0756   27.6500   -0.8069 C.3       4 UNK         0.0329 
     23 CB         29.3233   27.2176   -1.5915 C.3       4 UNK        -0.2001 
     24 N          26.9350   26.8201   -1.2019 N.am      4 UNK        -0.4303 
     25 C          25.6623   27.0421   -0.8415 C.2       3 UNK         0.5044 
     26 O          25.3034   28.0140   -0.1750 O.2       3 UNK        -0.5152 
     27 CA         24.6229   25.9746   -1.2297 C.3       3 UNK         0.0319 
     28 CB         23.8745   26.3972   -2.5038 C.3       3 UNK        -0.2001 
     29 N          25.1603   24.6194   -1.4127 N.am      3 UNK        -0.4354 
     30 C          25.8616   23.9162   -0.5104 C.2       2 UNK         0.4964 
     31 O          26.2021   24.3620    0.5870 O.2       2 UNK        -0.5047 
     32 CA         26.2506   22.4725   -0.8801 C.3       2 UNK         0.0288 
     33 CB         25.7470   22.0026   -2.2658 C.3       2 UNK        -0.2113 
     34 N          27.6938   22.2502   -0.7450 N.am      2 UNK        -0.4145 
     35 C          28.6848   22.8471   -1.4287 C.2       1 UNK         0.5006 
     36 O          28.4928   23.6953   -2.3030 O.2       1 UNK        -0.5103 
     37 C          27.0774   28.1781    3.5018 C.2       5 UNK         0.5055 
     38 O          27.4516   28.6110    4.5932 O.2       5 UNK        -0.5220 
     39 N          26.2036   28.8311    2.7178 N.am      6 UNK        -0.4450 
     40 CA         25.6371   30.1462    3.0241 C.3       6 UNK         0.0367 
     41 CB         24.4815   30.4324    2.0518 C.3       6 UNK        -0.1929 
     42 C          26.6601   31.3004    2.9943 C.2       6 UNK         0.5070 
     43 O          26.3785   32.3498    3.5746 O.2       6 UNK        -0.5237 
     44 N          27.8081   31.1144    2.3275 N.am      7 UNK        -0.4739 
     45 CA         28.8854   32.0970    2.2533 C.3       7 UNK         0.0276 
     46 CB         29.4529   32.1198    0.8232 C.3       7 UNK        -0.1927 
     47 C          29.9754   31.7214    3.2632 C.2       7 UNK         0.5013 
     48 O          30.6011   30.6701    3.1206 O.2       7 UNK        -0.5193 
     49 N          30.2331   32.6057    4.2375 N.am      8 UNK        -0.4253 
     50 CA         31.2903   32.4431    5.2468 C.3       8 UNK         0.0242 
     51 CB         31.2247   33.6043    6.2515 C.3       8 UNK        -0.2000 
     52 C          32.7047   32.3270    4.6466 C.2       8 UNK         0.4948 
     53 O          33.5518   31.6424    5.2191 O.2       8 UNK        -0.5275 
     54 N          32.9088   32.9455    3.4738 N.am      9 UNK        -0.4246 
     55 CA         34.1251   32.8847    2.6593 C.3       9 UNK         0.0261 
     56 CB         33.9805   33.8612    1.4799 C.3       9 UNK        -0.1959 
     57 C          34.4966   31.4770    2.1499 C.2       9 UNK         0.5033 
     58 O          35.6361   31.2895    1.7210 O.2       9 UNK        -0.5390 
     59 N          33.5659   30.5102    2.2089 N.am      10 UNK        -0.4215 
     60 CA         33.8377   29.0963    1.9318 C.3       10 UNK         0.0240 
     61 CB         32.5091   28.3580    1.6949 C.3       10 UNK        -0.1982 
     62 C          34.6655   28.4073    3.0382 C.2       10 UNK         0.4970 
     63 O          35.2059   27.3301    2.7846 O.2       10 UNK        -0.4916 
     64 N          34.7542   29.0244    4.2241 N.am      11 UNK        -0.4279 
     65 CA         35.5640   28.5884    5.3684 C.3       11 UNK         0.1003 
     66 C          36.7005   29.6058    5.6610 C.2       11 UNK         0.5709 
     67 N          37.6778   29.2187    6.4703 N.am      11 UNK        -0.7358 
     68 O          36.7171   30.7351    5.1740 O.2       11 UNK        -0.4999 
     69 C69        34.6727   28.3498    6.6186 C.3       12 UNK        -0.0954 
     70 S70        33.7433   26.7884    6.4930 S.3       12 UNK        -0.2268 
     71 C71        32.1549   27.3611    5.8197 C.3       12 UNK         0.0203 
     72 H72        29.2785   18.5709    1.0424 H         1 UNK         0.0888 
     73 H73        31.0150   18.4322    0.7551 H         1 UNK         0.0888 
     74 H74        30.3966   19.6831    1.8346 H         1 UNK         0.0888 
     75 H75        30.3924   21.7100    0.8786 H         1 UNK         0.3017 
     76 H76        30.5369   22.0096   -2.0143 H         1 UNK         0.0873 
     77 H77        31.1145   24.3141   -1.5840 H         1 UNK         0.0745 
     78 H78        32.0741   23.2903   -0.5661 H         1 UNK         0.0745 
     79 H79        32.6432   24.3993    1.7823 H         1 UNK         0.0705 
     80 H80        31.6673   22.9721    2.0727 H         1 UNK         0.0705 
     81 H81        32.7774   26.0372    3.5338 H         1 UNK         0.1334 
     82 H82        29.8261   26.1737    6.6446 H         1 UNK         0.1417 
     83 H83        29.4393   23.3534    3.4376 H         1 UNK         0.1562 
     84 H84        28.2517   24.0875    6.7462 H         1 UNK         0.0748 
     85 H85        27.8814   23.2703    5.2478 H         1 UNK         0.0748 
     86 H86        25.8374   25.6466    3.1675 H         1 UNK         0.0940 
     87 H87        27.2837   24.6936    3.0907 H         1 UNK         0.0940 
     88 H88        28.6845   26.7806    3.3265 H         1 UNK         0.0703 
     89 H89        27.2050   26.0479    1.0569 H         1 UNK         0.3081 
     90 H90        27.8435   28.6753   -1.1032 H         1 UNK         0.0719 
     91 H91        29.5123   26.1511   -1.4885 H         1 UNK         0.0809 
     92 H92        29.2130   27.4312   -2.6545 H         1 UNK         0.0809 
     93 H93        30.2135   27.7452   -1.2453 H         1 UNK         0.0809 
     94 H94        27.1442   25.9790   -1.7229 H         1 UNK         0.2990 
     95 H95        23.9013   25.9240   -0.4119 H         1 UNK         0.0690 
     96 H96        24.5373   26.4276   -3.3696 H         1 UNK         0.0788 
     97 H97        23.4405   27.3919   -2.3904 H         1 UNK         0.0788 
     98 H98        23.0556   25.7139   -2.7298 H         1 UNK         0.0788 
     99 H99        24.9480   24.1695   -2.2916 H         1 UNK         0.2993 
    100 H100       25.7741   21.8400   -0.1295 H         1 UNK         0.0949 
    101 H101       26.1585   22.5973   -3.0822 H         1 UNK         0.0767 
    102 H102       26.0256   20.9643   -2.4473 H         1 UNK         0.0767 
    103 H103       24.6591   22.0519   -2.3303 H         1 UNK         0.0767 
    104 H104       27.9658   21.5968   -0.0253 H         1 UNK         0.3013 
    105 H105       25.9541   28.4320    1.8189 H         1 UNK         0.3121 
    106 H106       25.2276   30.1042    4.0357 H         1 UNK         0.0774 
    107 H107       23.9977   31.3813    2.2877 H         1 UNK         0.0815 
    108 H108       24.8301   30.4923    1.0199 H         1 UNK         0.0815 
    109 H109       23.7163   29.6577    2.1025 H         1 UNK         0.0815 
    110 H110       28.0296   30.1960    1.9529 H         1 UNK         0.2987 
    111 H111       28.5098   33.0975    2.4788 H         1 UNK         0.0949 
    112 H112       29.8576   31.1499    0.5304 H         1 UNK         0.0806 
    113 H113       28.6863   32.3929    0.0980 H         1 UNK         0.0806 
    114 H114       30.2592   32.8488    0.7341 H         1 UNK         0.0806 
    115 H115       29.6714   33.4434    4.2990 H         1 UNK         0.3010 
    116 H116       31.0908   31.5127    5.7832 H         1 UNK         0.0829 
    117 H117       31.9868   33.4936    7.0245 H         1 UNK         0.0813 
    118 H118       31.3889   34.5682    5.7682 H         1 UNK         0.0813 
    119 H119       30.2587   33.6399    6.7557 H         1 UNK         0.0813 
    120 H120       32.1432   33.4807    3.0916 H         1 UNK         0.3038 
    121 H121       34.9531   33.2221    3.2865 H         1 UNK         0.0769 
    122 H122       34.8846   33.8738    0.8693 H         1 UNK         0.0811 
    123 H123       33.8135   34.8816    1.8253 H         1 UNK         0.0811 
    124 H124       33.1513   33.5852    0.8271 H         1 UNK         0.0811 
    125 H125       32.6377   30.7291    2.5582 H         1 UNK         0.3204 
    126 H126       34.4202   29.0374    1.0100 H         1 UNK         0.0748 
    127 H127       32.6805   27.3204    1.4054 H         1 UNK         0.0771 
    128 H128       31.8837   28.3485    2.5883 H         1 UNK         0.0771 
    129 H129       31.9312   28.8227    0.8957 H         1 UNK         0.0771 
    130 H130       34.3307   29.9392    4.3406 H         1 UNK         0.2980 
    131 H131       36.0682   27.6525    5.1203 H         1 UNK         0.0545 
    132 H132       37.6843   28.2965    6.8777 H         1 UNK         0.3459 
    133 H133       38.4259   29.8625    6.6755 H         1 UNK         0.3459 
    134 H134       35.2776   28.2745    7.5238 H         1 UNK         0.0616 
    135 H135       33.9888   29.1849    6.7823 H         1 UNK         0.0616 
    136 H136       32.3168   28.1416    5.0763 H         1 UNK         0.0634 
    137 H137       31.5710   27.8164    6.6209 H         1 UNK         0.0634 
@<TRIPOS>BOND
     1    1    2 1    
     2    1   72 1    
     3    1   73 1    
     4    1   74 1    
     5    2    3 2    
     6    2    4 am   BACKBONE|DICT|INTERRES
     7    4    5 1    
     8    4   75 1    
     9    5    6 1    
    10    5   35 1    
    11    5   76 1    
    12    6    7 1    
    13    6   77 1    
    14    6   78 1    
    15    7    8 1    
    16    8    9 1    
    17    8   79 1    
    18    8   80 1    
    19    9   10 ar   
    20    9   14 ar   
    21   10   11 ar   
    22   10   81 1    
    23   11   12 ar   
    24   11   71 1    
    25   12   13 ar   
    26   12   82 1    
    27   13   14 ar   
    28   13   15 1    
    29   14   83 1    
    30   15   16 1    
    31   15   84 1    
    32   15   85 1    
    33   16   17 1    
    34   17   18 1    
    35   17   86 1    
    36   17   87 1    
    37   18   19 1    
    38   18   37 1    
    39   18   88 1    
    40   19   20 am   BACKBONE|DICT|INTERRES
    41   19   89 1    
    42   20   21 2    
    43   20   22 1    
    44   22   23 1    
    45   22   24 1    
    46   22   90 1    
    47   23   91 1    
    48   23   92 1    
    49   23   93 1    
    50   24   25 am   BACKBONE|DICT|INTERRES
    51   24   94 1    
    52   25   26 2    
    53   25   27 1    
    54   27   28 1    
    55   27   29 1    
    56   27   95 1    
    57   28   96 1    
    58   28   97 1    
    59   28   98 1    
    60   29   30 am   BACKBONE|DICT|INTERRES
    61   29   99 1    
    62   30   31 2    
    63   30   32 1    
    64   32   33 1    
    65   32   34 1    
    66   32  100 1    
    67   33  101 1    
    68   33  102 1    
    69   33  103 1    
    70   34   35 am   BACKBONE|DICT|INTERRES
    71   34  104 1    
    72   35   36 2    
    73   37   38 2    
    74   37   39 am   BACKBONE|DICT|INTERRES
    75   39   40 1    
    76   39  105 1    
    77   40   41 1    
    78   40   42 1    
    79   40  106 1    
    80   41  107 1    
    81   41  108 1    
    82   41  109 1    
    83   42   43 2    
    84   42   44 am   BACKBONE|DICT|INTERRES
    85   44   45 1    
    86   44  110 1    
    87   45   46 1    
    88   45   47 1    
    89   45  111 1    
    90   46  112 1    
    91   46  113 1    
    92   46  114 1    
    93   47   48 2    
    94   47   49 am   BACKBONE|DICT|INTERRES
    95   49   50 1    
    96   49  115 1    
    97   50   51 1    
    98   50   52 1    
    99   50  116 1    
   100   51  117 1    
   101   51  118 1    
   102   51  119 1    
   103   52   53 2    
   104   52   54 am   BACKBONE|DICT|INTERRES
   105   54   55 1    
   106   54  120 1    
   107   55   56 1    
   108   55   57 1    
   109   55  121 1    
   110   56  122 1    
   111   56  123 1    
   112   56  124 1    
   113   57   58 2    
   114   57   59 am   BACKBONE|DICT|INTERRES
   115   59   60 1    
   116   59  125 1    
   117   60   61 1    
   118   60   62 1    
   119   60  126 1    
   120   61  127 1    
   121   61  128 1    
   122   61  129 1    
   123   62   63 2    
   124   62   64 am   BACKBONE|DICT|INTERRES
   125   64   65 1    
   126   64  130 1    
   127   65   66 1    
   128   65   69 1    
   129   65  131 1    
   130   66   67 am   BACKBONE|DICT|INTERRES
   131   66   68 2    
   132   67  132 1    
   133   67  133 1    
   134   69   70 1    
   135   69  134 1    
   136   69  135 1    
   137   70   71 1    
   138   71  136 1    
   139   71  137 1    
@<TRIPOS>SUBSTRUCTURE
     1 UNK         1 GROUP             0       ****    0 ROOT    
