@<TRIPOS>MOLECULE
3R136
137   139    1
SMALL
USER_CHARGES


@<TRIPOS>ATOM
      1 CA         27.9402   22.2028    4.3737 C.3       0 UNK        -0.1979 
      2 C          27.6728   22.0049    2.8898 C.2       0 UNK         0.4864 
      3 O          26.5869   21.5555    2.5189 O.2       0 UNK        -0.5359 
      4 N          28.6410   22.3532    2.0306 N.am      1 UNK        -0.4318 
      5 CA         28.5621   22.2432    0.5666 C.3       1 UNK         0.0824 
      6 C6         29.9648   22.1296   -0.0874 C.3       12 UNK        -0.0944 
      7 S7         30.8641   20.6470    0.4839 S.3       12 UNK        -0.2672 
      8 C8         32.6006   21.2167    0.4618 C.3       12 UNK         0.0333 
      9 C9         32.9143   22.3725    1.4123 C.ar      12 UNK        -0.0807 
     10 C10        33.9162   23.2849    1.0654 C.ar      12 UNK        -0.0894 
     11 C11        34.2342   24.3515    1.9109 C.ar      12 UNK        -0.0804 
     12 C12        33.5337   24.5142    3.1089 C.ar      12 UNK        -0.0824 
     13 C13        32.5286   23.6130    3.4688 C.ar      12 UNK        -0.0762 
     14 C14        32.2414   22.5322    2.6300 C.ar      12 UNK        -0.0782 
     15 C15        31.7510   23.8001    4.7640 C.3       12 UNK         0.0230 
     16 S16        30.8978   25.4113    4.8721 S.3       12 UNK        -0.2608 
     17 C17        29.9321   25.5294    3.3210 C.3       12 UNK        -0.0989 
     18 CA         29.8902   26.9887    2.8007 C.3       5 UNK         0.0716 
     19 N          29.5218   27.0728    1.3906 N.am      5 UNK        -0.4135 
     20 C          30.2176   27.7593    0.4730 C.2       4 UNK         0.5031 
     21 O          31.3400   28.2247    0.6668 O.2       4 UNK        -0.5229 
     22 CA         29.5453   28.0111   -0.8900 C.3       4 UNK         0.0329 
     23 CB         30.1126   27.0620   -1.9575 C.3       4 UNK        -0.2001 
     24 N          28.0829   27.9065   -0.8661 N.am      4 UNK        -0.4303 
     25 C          27.2654   28.6837   -0.1396 C.2       3 UNK         0.5044 
     26 O          27.6520   29.5988    0.5883 O.2       3 UNK        -0.5152 
     27 CA         25.7656   28.3407   -0.1672 C.3       3 UNK         0.0319 
     28 CB         25.0526   29.1477   -1.2633 C.3       3 UNK        -0.2001 
     29 N          25.4731   26.9151   -0.3503 N.am      3 UNK        -0.4354 
     30 C          25.9134   25.9116    0.4226 C.2       2 UNK         0.4964 
     31 O          26.6533   26.0765    1.3981 O.2       2 UNK        -0.5047 
     32 CA         25.4546   24.4890    0.0417 C.3       2 UNK         0.0288 
     33 CB         25.0355   24.3424   -1.4398 C.3       2 UNK        -0.2113 
     34 N          26.4528   23.4737    0.3897 N.am      2 UNK        -0.4145 
     35 C          27.7250   23.3977   -0.0275 C.2       1 UNK         0.5006 
     36 O          28.2371   24.1938   -0.8173 O.2       1 UNK        -0.5103 
     37 C          28.9416   27.8713    3.6328 C.2       5 UNK         0.5055 
     38 O          29.4173   28.7396    4.3658 O.2       5 UNK        -0.5220 
     39 N          27.6285   27.6205    3.5259 N.am      6 UNK        -0.4450 
     40 CA         26.6064   28.1270    4.4437 C.3       6 UNK         0.0367 
     41 CB         25.2922   27.3645    4.2076 C.3       6 UNK        -0.1929 
     42 C          26.3650   29.6419    4.3748 C.2       6 UNK         0.5070 
     43 O          26.2319   30.2741    5.4227 O.2       6 UNK        -0.5237 
     44 N          26.2899   30.1959    3.1585 N.am      7 UNK        -0.4739 
     45 CA         26.0271   31.6207    2.9327 C.3       7 UNK         0.0276 
     46 CB         25.2570   31.8094    1.6156 C.3       7 UNK        -0.1927 
     47 C          27.3292   32.4304    2.9217 C.2       7 UNK         0.5013 
     48 O          27.3497   33.5538    3.4251 O.2       7 UNK        -0.5193 
     49 N          28.3928   31.8385    2.3616 N.am      8 UNK        -0.4253 
     50 CA         29.7342   32.4200    2.2944 C.3       8 UNK         0.0242 
     51 CB         30.5765   31.5990    1.3071 C.3       8 UNK        -0.2000 
     52 C          30.4473   32.5057    3.6577 C.2       8 UNK         0.4948 
     53 O          31.3461   33.3356    3.7984 O.2       8 UNK        -0.5275 
     54 N          30.0403   31.6554    4.6155 N.am      9 UNK        -0.4246 
     55 CA         30.6658   31.4059    5.9205 C.3       9 UNK         0.0261 
     56 CB         30.6822   32.6717    6.8051 C.3       9 UNK        -0.1959 
     57 C          32.0500   30.7580    5.7341 C.2       9 UNK         0.5033 
     58 O          33.0643   31.3235    6.1488 O.2       9 UNK        -0.5390 
     59 N          32.0339   29.5862    5.0808 N.am      10 UNK        -0.4215 
     60 CA         33.1653   28.8123    4.5515 C.3       10 UNK         0.0240 
     61 CB         34.2069   28.4881    5.6447 C.3       10 UNK        -0.1982 
     62 C          33.7969   29.4691    3.3076 C.2       10 UNK         0.4970 
     63 O          33.4248   30.5781    2.9208 O.2       10 UNK        -0.4916 
     64 N          34.7299   28.7459    2.6783 N.am      11 UNK        -0.4279 
     65 CA         35.3786   29.1396    1.4145 C.3       11 UNK         0.1003 
     66 C          36.4385   30.2729    1.5454 C.2       11 UNK         0.5709 
     67 N          36.8391   30.6789    2.7445 N.am      11 UNK        -0.7358 
     68 O          36.9040   30.7973    0.5362 O.2       11 UNK        -0.4999 
     69 C69        35.9632   27.9162    0.6574 C.3       12 UNK        -0.0954 
     70 S70        34.7287   26.5986    0.3909 S.3       12 UNK        -0.2268 
     71 C71        35.3379   25.3256    1.5363 C.3       12 UNK         0.0203 
     72 H72        27.0459   22.5787    4.8704 H         1 UNK         0.0888 
     73 H73        28.2140   21.2549    4.8362 H         1 UNK         0.0888 
     74 H74        28.7410   22.9177    4.5501 H         1 UNK         0.0888 
     75 H75        29.5080   22.7258    2.3840 H         1 UNK         0.3017 
     76 H76        28.0235   21.3242    0.3234 H         1 UNK         0.0873 
     77 H77        30.5535   23.0261    0.1158 H         1 UNK         0.0745 
     78 H78        29.8781   22.0618   -1.1736 H         1 UNK         0.0745 
     79 H79        32.8518   21.4950   -0.5631 H         1 UNK         0.0705 
     80 H80        33.2441   20.3748    0.7198 H         1 UNK         0.0705 
     81 H81        34.4542   23.1669    0.1344 H         1 UNK         0.1334 
     82 H82        33.7641   25.3440    3.7626 H         1 UNK         0.1417 
     83 H83        31.4877   21.8157    2.9242 H         1 UNK         0.1562 
     84 H84        32.4440   23.7191    5.6025 H         1 UNK         0.0748 
     85 H85        31.0225   23.0012    4.9006 H         1 UNK         0.0748 
     86 H86        28.9302   25.1261    3.4776 H         1 UNK         0.0940 
     87 H87        30.3952   24.8982    2.5627 H         1 UNK         0.0940 
     88 H88        30.8914   27.4030    2.9256 H         1 UNK         0.0703 
     89 H89        28.6039   26.7237    1.1395 H         1 UNK         0.3081 
     90 H90        29.7912   29.0347   -1.1806 H         1 UNK         0.0719 
     91 H91        29.7026   27.2794   -2.9438 H         1 UNK         0.0809 
     92 H92        31.1968   27.1618   -2.0291 H         1 UNK         0.0809 
     93 H93        29.8995   26.0185   -1.7254 H         1 UNK         0.0809 
     94 H94        27.6749   27.1551   -1.4041 H         1 UNK         0.2990 
     95 H95        25.3469   28.6335    0.7971 H         1 UNK         0.0690 
     96 H96        25.3811   28.8523   -2.2606 H         1 UNK         0.0788 
     97 H97        25.2508   30.2152   -1.1611 H         1 UNK         0.0788 
     98 H98        23.9715   29.0165   -1.2128 H         1 UNK         0.0788 
     99 H99        24.8771   26.6787   -1.1308 H         1 UNK         0.2993 
    100 H100       24.5810   24.2798    0.6607 H         1 UNK         0.0949 
    101 H101       25.8338   24.6400   -2.1213 H         1 UNK         0.0767 
    102 H102       24.7756   23.3092   -1.6714 H         1 UNK         0.0767 
    103 H103       24.1557   24.9438   -1.6710 H         1 UNK         0.0767 
    104 H104       26.1730   22.7983    1.0969 H         1 UNK         0.3013 
    105 H105       27.3077   26.9363    2.8431 H         1 UNK         0.3121 
    106 H106       26.9438   27.9015    5.4579 H         1 UNK         0.0774 
    107 H107       24.5195   27.6919    4.9046 H         1 UNK         0.0815 
    108 H108       24.9089   27.5212    3.1987 H         1 UNK         0.0815 
    109 H109       25.4240   26.2920    4.3518 H         1 UNK         0.0815 
    110 H110       26.4995   29.6331    2.3439 H         1 UNK         0.2987 
    111 H111       25.4005   32.0064    3.7405 H         1 UNK         0.0949 
    112 H112       25.8609   31.5437    0.7487 H         1 UNK         0.0806 
    113 H113       24.3489   31.2068    1.5934 H         1 UNK         0.0806 
    114 H114       24.9580   32.8509    1.4905 H         1 UNK         0.0806 
    115 H115       28.2556   30.9419    1.9040 H         1 UNK         0.3010 
    116 H116       29.6414   33.4363    1.9056 H         1 UNK         0.0829 
    117 H117       31.5627   32.0446    1.1699 H         1 UNK         0.0813 
    118 H118       30.7316   30.5837    1.6722 H         1 UNK         0.0813 
    119 H119       30.1046   31.5376    0.3263 H         1 UNK         0.0813 
    120 H120       29.3202   30.9904    4.3618 H         1 UNK         0.3038 
    121 H121       30.0391   30.6677    6.4239 H         1 UNK         0.0769 
    122 H122       31.3372   33.4459    6.4053 H         1 UNK         0.0811 
    123 H123       31.0403   32.4356    7.8077 H         1 UNK         0.0811 
    124 H124       29.6836   33.0963    6.9072 H         1 UNK         0.0811 
    125 H125       31.1153   29.2499    4.7935 H         1 UNK         0.3204 
    126 H126       32.7402   27.8655    4.2190 H         1 UNK         0.0748 
    127 H127       34.9198   27.7372    5.3032 H         1 UNK         0.0771 
    128 H128       34.7811   29.3677    5.9366 H         1 UNK         0.0771 
    129 H129       33.7285   28.0885    6.5390 H         1 UNK         0.0771 
    130 H130       34.9923   27.8456    3.0460 H         1 UNK         0.2980 
    131 H131       34.5945   29.5540    0.7772 H         1 UNK         0.0545 
    132 H132       37.5227   31.4160    2.8133 H         1 UNK         0.3459 
    133 H133       36.4529   30.2673    3.5783 H         1 UNK         0.3459 
    134 H134       36.3278   28.2198   -0.3256 H         1 UNK         0.0616 
    135 H135       36.8286   27.5133    1.1866 H         1 UNK         0.0616 
    136 H136       35.7364   25.7945    2.4370 H         1 UNK         0.0634 
    137 H137       36.1699   24.7932    1.0729 H         1 UNK         0.0634 
@<TRIPOS>BOND
     1    1    2 1    
     2    1   72 1    
     3    1   73 1    
     4    1   74 1    
     5    2    3 2    
     6    2    4 am   BACKBONE|DICT|INTERRES
     7    4    5 1    
     8    4   75 1    
     9    5    6 1    
    10    5   35 1    
    11    5   76 1    
    12    6    7 1    
    13    6   77 1    
    14    6   78 1    
    15    7    8 1    
    16    8    9 1    
    17    8   79 1    
    18    8   80 1    
    19    9   10 ar   
    20    9   14 ar   
    21   10   11 ar   
    22   10   81 1    
    23   11   12 ar   
    24   11   71 1    
    25   12   13 ar   
    26   12   82 1    
    27   13   14 ar   
    28   13   15 1    
    29   14   83 1    
    30   15   16 1    
    31   15   84 1    
    32   15   85 1    
    33   16   17 1    
    34   17   18 1    
    35   17   86 1    
    36   17   87 1    
    37   18   19 1    
    38   18   37 1    
    39   18   88 1    
    40   19   20 am   BACKBONE|DICT|INTERRES
    41   19   89 1    
    42   20   21 2    
    43   20   22 1    
    44   22   23 1    
    45   22   24 1    
    46   22   90 1    
    47   23   91 1    
    48   23   92 1    
    49   23   93 1    
    50   24   25 am   BACKBONE|DICT|INTERRES
    51   24   94 1    
    52   25   26 2    
    53   25   27 1    
    54   27   28 1    
    55   27   29 1    
    56   27   95 1    
    57   28   96 1    
    58   28   97 1    
    59   28   98 1    
    60   29   30 am   BACKBONE|DICT|INTERRES
    61   29   99 1    
    62   30   31 2    
    63   30   32 1    
    64   32   33 1    
    65   32   34 1    
    66   32  100 1    
    67   33  101 1    
    68   33  102 1    
    69   33  103 1    
    70   34   35 am   BACKBONE|DICT|INTERRES
    71   34  104 1    
    72   35   36 2    
    73   37   38 2    
    74   37   39 am   BACKBONE|DICT|INTERRES
    75   39   40 1    
    76   39  105 1    
    77   40   41 1    
    78   40   42 1    
    79   40  106 1    
    80   41  107 1    
    81   41  108 1    
    82   41  109 1    
    83   42   43 2    
    84   42   44 am   BACKBONE|DICT|INTERRES
    85   44   45 1    
    86   44  110 1    
    87   45   46 1    
    88   45   47 1    
    89   45  111 1    
    90   46  112 1    
    91   46  113 1    
    92   46  114 1    
    93   47   48 2    
    94   47   49 am   BACKBONE|DICT|INTERRES
    95   49   50 1    
    96   49  115 1    
    97   50   51 1    
    98   50   52 1    
    99   50  116 1    
   100   51  117 1    
   101   51  118 1    
   102   51  119 1    
   103   52   53 2    
   104   52   54 am   BACKBONE|DICT|INTERRES
   105   54   55 1    
   106   54  120 1    
   107   55   56 1    
   108   55   57 1    
   109   55  121 1    
   110   56  122 1    
   111   56  123 1    
   112   56  124 1    
   113   57   58 2    
   114   57   59 am   BACKBONE|DICT|INTERRES
   115   59   60 1    
   116   59  125 1    
   117   60   61 1    
   118   60   62 1    
   119   60  126 1    
   120   61  127 1    
   121   61  128 1    
   122   61  129 1    
   123   62   63 2    
   124   62   64 am   BACKBONE|DICT|INTERRES
   125   64   65 1    
   126   64  130 1    
   127   65   66 1    
   128   65   69 1    
   129   65  131 1    
   130   66   67 am   BACKBONE|DICT|INTERRES
   131   66   68 2    
   132   67  132 1    
   133   67  133 1    
   134   69   70 1    
   135   69  134 1    
   136   69  135 1    
   137   70   71 1    
   138   71  136 1    
   139   71  137 1    
@<TRIPOS>SUBSTRUCTURE
     1 UNK         1 GROUP             0       ****    0 ROOT    
