@<TRIPOS>MOLECULE
3R136
137   139    1
SMALL
USER_CHARGES


@<TRIPOS>ATOM
      1 CA         31.4689   27.6203    2.6012 C.3       0 UNK        -0.1979 
      2 C          30.1570   27.0968    3.1657 C.2       0 UNK         0.4864 
      3 O          29.5284   27.7808    3.9741 O.2       0 UNK        -0.5359 
      4 N          29.7360   25.8889    2.7616 N.am      1 UNK        -0.4318 
      5 CA         28.4227   25.3420    3.1073 C.3       1 UNK         0.0824 
      6 C6         28.3959   23.7875    3.1602 C.3       12 UNK        -0.0944 
      7 S7         28.4479   22.8990    1.5607 S.3       12 UNK        -0.2672 
      8 C8         30.0995   22.1368    1.5790 C.3       12 UNK         0.0333 
      9 C9         31.2009   23.1781    1.4616 C.ar      12 UNK        -0.0807 
     10 C10        32.0160   23.4702    2.5577 C.ar      12 UNK        -0.0894 
     11 C11        33.0281   24.4291    2.4619 C.ar      12 UNK        -0.0804 
     12 C12        33.2098   25.1007    1.2438 C.ar      12 UNK        -0.0824 
     13 C13        32.3976   24.8269    0.1382 C.ar      12 UNK        -0.0762 
     14 C14        31.4028   23.8494    0.2533 C.ar      12 UNK        -0.0782 
     15 C15        32.6502   25.5772   -1.1705 C.3       12 UNK         0.0230 
     16 S16        31.1817   25.8045   -2.2321 S.3       12 UNK        -0.2608 
     17 C17        30.2351   27.0625   -1.3104 C.3       12 UNK        -0.0989 
     18 CA         28.8430   27.3170   -1.9537 C.3       5 UNK         0.0716 
     19 N          27.9871   26.1400   -1.8062 N.am      5 UNK        -0.4135 
     20 C          27.5641   25.3543   -2.8002 C.2       4 UNK         0.5031 
     21 O          27.7918   25.5758   -3.9911 O.2       4 UNK        -0.5229 
     22 CA         26.7727   24.0922   -2.4287 C.3       4 UNK         0.0329 
     23 CB         27.7261   22.8954   -2.2679 C.3       4 UNK        -0.2001 
     24 N          25.9622   24.2349   -1.2128 N.am      4 UNK        -0.4303 
     25 C          24.6949   23.8050   -1.1095 C.2       3 UNK         0.5044 
     26 O          24.0621   23.3111   -2.0444 O.2       3 UNK        -0.5152 
     27 CA         24.0027   23.9018    0.2634 C.3       3 UNK         0.0319 
     28 CB         24.0549   22.5421    0.9796 C.3       3 UNK        -0.2001 
     29 N          24.5708   24.9182    1.1458 N.am      3 UNK        -0.4354 
     30 C          24.4396   26.2425    0.9885 C.2       2 UNK         0.4964 
     31 O          23.7564   26.7598    0.1043 O.2       2 UNK        -0.5047 
     32 CA         25.1911   27.1436    1.9900 C.3       2 UNK         0.0288 
     33 CB         24.2102   27.7581    3.0024 C.3       2 UNK        -0.2113 
     34 N          26.2746   26.4752    2.7244 N.am      2 UNK        -0.4145 
     35 C          27.3707   25.9491    2.1597 C.2       1 UNK         0.5006 
     36 O          27.5553   25.9077    0.9404 O.2       1 UNK        -0.5103 
     37 C          28.1296   28.5307   -1.3261 C.2       5 UNK         0.5055 
     38 O          27.0084   28.4097   -0.8247 O.2       5 UNK        -0.5220 
     39 N          28.7889   29.6967   -1.3611 N.am      6 UNK        -0.4450 
     40 CA         28.3922   30.8732   -0.5841 C.3       6 UNK         0.0367 
     41 CB         29.1982   32.0939   -1.0576 C.3       6 UNK        -0.1929 
     42 C          28.6289   30.6196    0.9144 C.2       6 UNK         0.5070 
     43 O          29.6041   29.9565    1.2658 O.2       6 UNK        -0.5237 
     44 N          27.7541   31.1684    1.7652 N.am      7 UNK        -0.4739 
     45 CA         27.7713   30.9672    3.2204 C.3       7 UNK         0.0276 
     46 CB         26.3878   31.3383    3.7819 C.3       7 UNK        -0.1927 
     47 C          28.8851   31.7333    3.9651 C.2       7 UNK         0.5013 
     48 O          29.0365   31.5451    5.1734 O.2       7 UNK        -0.5193 
     49 N          29.6183   32.6043    3.2582 N.am      8 UNK        -0.4253 
     50 CA         30.7408   33.3843    3.7817 C.3       8 UNK         0.0242 
     51 CB         31.1627   34.4206    2.7275 C.3       8 UNK        -0.2000 
     52 C          31.9353   32.4930    4.1629 C.2       8 UNK         0.4948 
     53 O          32.1919   31.4910    3.4914 O.2       8 UNK        -0.5275 
     54 N          32.6512   32.8843    5.2266 N.am      9 UNK        -0.4246 
     55 CA         33.8605   32.2718    5.8050 C.3       9 UNK         0.0261 
     56 CB         35.0318   32.2930    4.8029 C.3       9 UNK        -0.1959 
     57 C          33.6825   30.8604    6.3998 C.2       9 UNK         0.5033 
     58 O          34.3282   30.5572    7.4042 O.2       9 UNK        -0.5390 
     59 N          32.8449   30.0201    5.7760 N.am      10 UNK        -0.4215 
     60 CA         32.4883   28.6475    6.1647 C.3       10 UNK         0.0240 
     61 CB         31.6261   28.6619    7.4443 C.3       10 UNK        -0.1982 
     62 C          33.6962   27.6918    6.2735 C.2       10 UNK         0.4970 
     63 O          33.6561   26.7460    7.0619 O.2       10 UNK        -0.4916 
     64 N          34.7507   27.9698    5.4931 N.am      11 UNK        -0.4279 
     65 CA         36.0729   27.3205    5.5464 C.3       11 UNK         0.1003 
     66 C          36.8533   27.5560    6.8786 C.2       11 UNK         0.5709 
     67 N          36.4946   28.5374    7.6998 N.am      11 UNK        -0.7358 
     68 O          37.8275   26.8623    7.1621 O.2       11 UNK        -0.4999 
     69 C69        36.0473   25.8247    5.1132 C.3       12 UNK        -0.0954 
     70 S70        35.4375   25.5980    3.4094 S.3       12 UNK        -0.2268 
     71 C71        33.8632   24.7262    3.7103 C.3       12 UNK         0.0203 
     72 H72        32.3167   27.1992    3.1379 H         1 UNK         0.0888 
     73 H73        31.5647   27.3810    1.5438 H         1 UNK         0.0888 
     74 H74        31.5162   28.7053    2.6967 H         1 UNK         0.0888 
     75 H75        30.2725   25.3519    2.0928 H         1 UNK         0.3017 
     76 H76        28.1850   25.6736    4.1208 H         1 UNK         0.0873 
     77 H77        27.4814   23.4677    3.6625 H         1 UNK         0.0745 
     78 H78        29.2053   23.4306    3.7985 H         1 UNK         0.0745 
     79 H79        30.2147   21.5393    2.4847 H         1 UNK         0.0705 
     80 H80        30.1740   21.4408    0.7422 H         1 UNK         0.0705 
     81 H81        31.8571   22.9532    3.4946 H         1 UNK         0.1334 
     82 H82        33.9783   25.8542    1.1475 H         1 UNK         0.1417 
     83 H83        30.7733   23.6101   -0.5926 H         1 UNK         0.1562 
     84 H84        33.3988   25.0233   -1.7382 H         1 UNK         0.0748 
     85 H85        33.0827   26.5583   -0.9676 H         1 UNK         0.0748 
     86 H86        30.8410   27.9693   -1.2808 H         1 UNK         0.0940 
     87 H87        30.1181   26.7361   -0.2753 H         1 UNK         0.0940 
     88 H88        28.9816   27.5583   -3.0096 H         1 UNK         0.0703 
     89 H89        27.7192   25.9528   -0.8420 H         1 UNK         0.3081 
     90 H90        26.1244   23.8880   -3.2836 H         1 UNK         0.0719 
     91 H91        28.4229   23.0461   -1.4432 H         1 UNK         0.0809 
     92 H92        27.1778   21.9722   -2.0800 H         1 UNK         0.0809 
     93 H93        28.3192   22.7435   -3.1707 H         1 UNK         0.0809 
     94 H94        26.4082   24.6427   -0.3995 H         1 UNK         0.2990 
     95 H95        22.9552   24.1545    0.0852 H         1 UNK         0.0690 
     96 H96        23.5030   22.5656    1.9194 H         1 UNK         0.0788 
     97 H97        25.0806   22.2403    1.1978 H         1 UNK         0.0788 
     98 H98        23.6094   21.7590    0.3642 H         1 UNK         0.0788 
     99 H99        25.1429   24.5863    1.9078 H         1 UNK         0.2993 
    100 H100       25.6400   27.9548    1.4130 H         1 UNK         0.0949 
    101 H101       23.4215   28.3144    2.4936 H         1 UNK         0.0767 
    102 H102       23.7283   26.9928    3.6121 H         1 UNK         0.0767 
    103 H103       24.7137   28.4547    3.6728 H         1 UNK         0.0767 
    104 H104       26.1928   26.4664    3.7311 H         1 UNK         0.3013 
    105 H105       29.7048   29.7285   -1.7838 H         1 UNK         0.3121 
    106 H106       27.3300   31.0628   -0.7545 H         1 UNK         0.0774 
    107 H107       28.8963   32.9938   -0.5201 H         1 UNK         0.0815 
    108 H108       30.2685   31.9605   -0.8935 H         1 UNK         0.0815 
    109 H109       29.0419   32.2856   -2.1193 H         1 UNK         0.0815 
    110 H110       26.9924   31.7201    1.3956 H         1 UNK         0.2987 
    111 H111       27.9405   29.9050    3.4118 H         1 UNK         0.0949 
    112 H112       26.3315   31.1324    4.8518 H         1 UNK         0.0806 
    113 H113       26.1667   32.3971    3.6420 H         1 UNK         0.0806 
    114 H114       25.5960   30.7628    3.3025 H         1 UNK         0.0806 
    115 H115       29.4474   32.6592    2.2659 H         1 UNK         0.3010 
    116 H116       30.3940   33.9113    4.6732 H         1 UNK         0.0829 
    117 H117       30.3398   35.0896    2.4748 H         1 UNK         0.0813 
    118 H118       31.9817   35.0412    3.0939 H         1 UNK         0.0813 
    119 H119       31.5032   33.9433    1.8074 H         1 UNK         0.0813 
    120 H120       32.3295   33.7075    5.7179 H         1 UNK         0.3038 
    121 H121       34.1385   32.9169    6.6402 H         1 UNK         0.0769 
    122 H122       35.9480   31.9253    5.2671 H         1 UNK         0.0811 
    123 H123       35.2324   33.3046    4.4501 H         1 UNK         0.0811 
    124 H124       34.8374   31.6673    3.9314 H         1 UNK         0.0811 
    125 H125       32.4216   30.3702    4.9167 H         1 UNK         0.3204 
    126 H126       31.8668   28.2570    5.3610 H         1 UNK         0.0748 
    127 H127       31.2387   27.6674    7.6691 H         1 UNK         0.0771 
    128 H128       32.1965   28.9951    8.3120 H         1 UNK         0.0771 
    129 H129       30.7664   29.3230    7.3322 H         1 UNK         0.0771 
    130 H130       34.6870   28.7682    4.8799 H         1 UNK         0.2980 
    131 H131       36.6710   27.8493    4.8037 H         1 UNK         0.0545 
    132 H132       35.7020   29.1380    7.4963 H         1 UNK         0.3459 
    133 H133       37.0200   28.6792    8.5474 H         1 UNK         0.3459 
    134 H134       37.0534   25.4031    5.1385 H         1 UNK         0.0616 
    135 H135       35.4568   25.2270    5.8087 H         1 UNK         0.0616 
    136 H136       34.0913   23.7891    4.2207 H         1 UNK         0.0634 
    137 H137       33.2581   25.3160    4.3994 H         1 UNK         0.0634 
@<TRIPOS>BOND
     1    1    2 1    
     2    1   72 1    
     3    1   73 1    
     4    1   74 1    
     5    2    3 2    
     6    2    4 am   BACKBONE|DICT|INTERRES
     7    4    5 1    
     8    4   75 1    
     9    5    6 1    
    10    5   35 1    
    11    5   76 1    
    12    6    7 1    
    13    6   77 1    
    14    6   78 1    
    15    7    8 1    
    16    8    9 1    
    17    8   79 1    
    18    8   80 1    
    19    9   10 ar   
    20    9   14 ar   
    21   10   11 ar   
    22   10   81 1    
    23   11   12 ar   
    24   11   71 1    
    25   12   13 ar   
    26   12   82 1    
    27   13   14 ar   
    28   13   15 1    
    29   14   83 1    
    30   15   16 1    
    31   15   84 1    
    32   15   85 1    
    33   16   17 1    
    34   17   18 1    
    35   17   86 1    
    36   17   87 1    
    37   18   19 1    
    38   18   37 1    
    39   18   88 1    
    40   19   20 am   BACKBONE|DICT|INTERRES
    41   19   89 1    
    42   20   21 2    
    43   20   22 1    
    44   22   23 1    
    45   22   24 1    
    46   22   90 1    
    47   23   91 1    
    48   23   92 1    
    49   23   93 1    
    50   24   25 am   BACKBONE|DICT|INTERRES
    51   24   94 1    
    52   25   26 2    
    53   25   27 1    
    54   27   28 1    
    55   27   29 1    
    56   27   95 1    
    57   28   96 1    
    58   28   97 1    
    59   28   98 1    
    60   29   30 am   BACKBONE|DICT|INTERRES
    61   29   99 1    
    62   30   31 2    
    63   30   32 1    
    64   32   33 1    
    65   32   34 1    
    66   32  100 1    
    67   33  101 1    
    68   33  102 1    
    69   33  103 1    
    70   34   35 am   BACKBONE|DICT|INTERRES
    71   34  104 1    
    72   35   36 2    
    73   37   38 2    
    74   37   39 am   BACKBONE|DICT|INTERRES
    75   39   40 1    
    76   39  105 1    
    77   40   41 1    
    78   40   42 1    
    79   40  106 1    
    80   41  107 1    
    81   41  108 1    
    82   41  109 1    
    83   42   43 2    
    84   42   44 am   BACKBONE|DICT|INTERRES
    85   44   45 1    
    86   44  110 1    
    87   45   46 1    
    88   45   47 1    
    89   45  111 1    
    90   46  112 1    
    91   46  113 1    
    92   46  114 1    
    93   47   48 2    
    94   47   49 am   BACKBONE|DICT|INTERRES
    95   49   50 1    
    96   49  115 1    
    97   50   51 1    
    98   50   52 1    
    99   50  116 1    
   100   51  117 1    
   101   51  118 1    
   102   51  119 1    
   103   52   53 2    
   104   52   54 am   BACKBONE|DICT|INTERRES
   105   54   55 1    
   106   54  120 1    
   107   55   56 1    
   108   55   57 1    
   109   55  121 1    
   110   56  122 1    
   111   56  123 1    
   112   56  124 1    
   113   57   58 2    
   114   57   59 am   BACKBONE|DICT|INTERRES
   115   59   60 1    
   116   59  125 1    
   117   60   61 1    
   118   60   62 1    
   119   60  126 1    
   120   61  127 1    
   121   61  128 1    
   122   61  129 1    
   123   62   63 2    
   124   62   64 am   BACKBONE|DICT|INTERRES
   125   64   65 1    
   126   64  130 1    
   127   65   66 1    
   128   65   69 1    
   129   65  131 1    
   130   66   67 am   BACKBONE|DICT|INTERRES
   131   66   68 2    
   132   67  132 1    
   133   67  133 1    
   134   69   70 1    
   135   69  134 1    
   136   69  135 1    
   137   70   71 1    
   138   71  136 1    
   139   71  137 1    
@<TRIPOS>SUBSTRUCTURE
     1 UNK         1 GROUP             0       ****    0 ROOT    
