@<TRIPOS>MOLECULE
3R136
137   139    1
SMALL
USER_CHARGES


@<TRIPOS>ATOM
      1 CA         27.5089   22.8090    6.3317 C.3       0 UNK        -0.1979 
      2 C          27.2813   23.9721    5.3775 C.2       0 UNK         0.4864 
      3 O          26.2804   24.6767    5.5069 O.2       0 UNK        -0.5359 
      4 N          28.1935   24.1579    4.4104 N.am      1 UNK        -0.4318 
      5 CA         28.2354   25.2465    3.4134 C.3       1 UNK         0.0824 
      6 C6         28.3092   26.6720    4.0363 C.3       12 UNK        -0.0944 
      7 S7         29.5830   26.8238    5.3398 S.3       12 UNK        -0.2672 
      8 C8         30.9097   27.7432    4.5014 C.3       12 UNK         0.0333 
      9 C9         31.4790   27.0042    3.2983 C.ar      12 UNK        -0.0807 
     10 C10        32.0460   25.7351    3.4451 C.ar      12 UNK        -0.0894 
     11 C11        32.5892   25.0692    2.3423 C.ar      12 UNK        -0.0804 
     12 C12        32.5658   25.6822    1.0853 C.ar      12 UNK        -0.0824 
     13 C13        32.0225   26.9608    0.9312 C.ar      12 UNK        -0.0762 
     14 C14        31.4723   27.6102    2.0396 C.ar      12 UNK        -0.0782 
     15 C15        32.0652   27.6583   -0.4218 C.3       12 UNK         0.0230 
     16 S16        30.5875   27.3083   -1.4227 S.3       12 UNK        -0.2608 
     17 C17        29.2962   28.1440   -0.4459 C.3       12 UNK        -0.0989 
     18 CA         28.0517   28.5306   -1.2792 C.3       5 UNK         0.0716 
     19 N          27.4609   27.3790   -1.9700 N.am      5 UNK        -0.4135 
     20 C          26.4625   27.4303   -2.8610 C.2       4 UNK         0.5031 
     21 O          25.8967   28.4749   -3.1866 O.2       4 UNK        -0.5229 
     22 CA         25.9970   26.1143   -3.5170 C.3       4 UNK         0.0329 
     23 CB         26.5685   25.9794   -4.9426 C.3       4 UNK        -0.2001 
     24 N          26.2245   24.8900   -2.7342 N.am      4 UNK        -0.4303 
     25 C          27.3753   24.2885   -2.4058 C.2       3 UNK         0.5044 
     26 O          28.4853   24.7370   -2.6906 O.2       3 UNK        -0.5152 
     27 CA         27.2532   22.9934   -1.5776 C.3       3 UNK         0.0319 
     28 CB         28.5983   22.2560   -1.4372 C.3       3 UNK        -0.2001 
     29 N          26.7206   23.2540   -0.2387 N.am      3 UNK        -0.4354 
     30 C          25.4539   23.5774    0.0565 C.2       2 UNK         0.4964 
     31 O          24.5558   23.6337   -0.7854 O.2       2 UNK        -0.5047 
     32 CA         25.1195   23.8975    1.5248 C.3       2 UNK         0.0288 
     33 CB         24.2514   22.7836    2.1336 C.3       2 UNK        -0.2113 
     34 N          26.2835   24.1121    2.3907 N.am      2 UNK        -0.4145 
     35 C          27.1250   25.1554    2.3369 C.2       1 UNK         0.5006 
     36 O          27.0631   26.0144    1.4563 O.2       1 UNK        -0.5103 
     37 C          27.0428   29.2712   -0.3799 C.2       5 UNK         0.5055 
     38 O          27.0125   30.5020   -0.3890 O.2       5 UNK        -0.5220 
     39 N          26.2709   28.5047    0.4037 N.am      6 UNK        -0.4450 
     40 CA         25.3059   28.9054    1.4357 C.3       6 UNK         0.0367 
     41 CB         24.2280   29.8653    0.8953 C.3       6 UNK        -0.1929 
     42 C          25.9625   29.4486    2.7175 C.2       6 UNK         0.5070 
     43 O          25.5193   29.0901    3.8085 O.2       6 UNK        -0.5237 
     44 N          27.0083   30.2706    2.5828 N.am      7 UNK        -0.4739 
     45 CA         27.8105   30.8177    3.6734 C.3       7 UNK         0.0276 
     46 CB         27.0610   31.9808    4.3520 C.3       7 UNK        -0.1927 
     47 C          29.1628   31.2897    3.1249 C.2       7 UNK         0.5013 
     48 O          29.2772   31.5687    1.9293 O.2       7 UNK        -0.5193 
     49 N          30.1475   31.3939    4.0211 N.am      8 UNK        -0.4253 
     50 CA         31.4982   31.9122    3.8132 C.3       8 UNK         0.0242 
     51 CB         32.3178   31.0074    2.8692 C.3       8 UNK        -0.2000 
     52 C          32.1674   31.9930    5.1915 C.2       8 UNK         0.4948 
     53 O          31.6397   31.4336    6.1580 O.2       8 UNK        -0.5275 
     54 N          33.3261   32.6616    5.2589 N.am      9 UNK        -0.4246 
     55 CA         34.1507   32.7542    6.4700 C.3       9 UNK         0.0261 
     56 CB         35.2274   33.8344    6.2746 C.3       9 UNK        -0.1959 
     57 C          34.7981   31.4137    6.8684 C.2       9 UNK         0.5033 
     58 O          34.9982   31.1705    8.0595 O.2       9 UNK        -0.5390 
     59 N          35.1030   30.5742    5.8726 N.am      10 UNK        -0.4215 
     60 CA         35.6667   29.2342    5.9970 C.3       10 UNK         0.0240 
     61 CB         37.1582   29.3116    6.3814 C.3       10 UNK        -0.1982 
     62 C          35.4867   28.5190    4.6522 C.2       10 UNK         0.4970 
     63 O          35.2471   29.1826    3.6392 O.2       10 UNK        -0.4916 
     64 N          35.6257   27.1888    4.6646 N.am      11 UNK        -0.4279 
     65 CA         35.6589   26.3492    3.4599 C.3       11 UNK         0.1003 
     66 C          36.9523   26.5918    2.6321 C.2       11 UNK         0.5709 
     67 N          36.8404   26.7251    1.3174 N.am      11 UNK        -0.7358 
     68 O          38.0559   26.6327    3.1737 O.2       11 UNK        -0.4999 
     69 C69        35.4712   24.8536    3.8345 C.3       12 UNK        -0.0954 
     70 S70        35.0506   23.7990    2.4035 S.3       12 UNK        -0.2268 
     71 C71        33.2348   23.7030    2.5151 C.3       12 UNK         0.0203 
     72 H72        27.5942   23.1764    7.3540 H         1 UNK         0.0888 
     73 H73        26.6690   22.1160    6.2875 H         1 UNK         0.0888 
     74 H74        28.4179   22.2566    6.0940 H         1 UNK         0.0888 
     75 H75        28.9809   23.5255    4.3691 H         1 UNK         0.3017 
     76 H76        29.1657   25.0936    2.8642 H         1 UNK         0.0873 
     77 H77        27.3494   26.9440    4.4789 H         1 UNK         0.0745 
     78 H78        28.5009   27.4187    3.2633 H         1 UNK         0.0745 
     79 H79        30.5202   28.7171    4.2107 H         1 UNK         0.0705 
     80 H80        31.7143   27.9340    5.2130 H         1 UNK         0.0705 
     81 H81        32.0697   25.2719    4.4221 H         1 UNK         0.1334 
     82 H82        32.9965   25.1739    0.2333 H         1 UNK         0.1417 
     83 H83        31.0487   28.5971    1.9230 H         1 UNK         0.1562 
     84 H84        32.9471   27.3340   -0.9764 H         1 UNK         0.0748 
     85 H85        32.1729   28.7364   -0.2912 H         1 UNK         0.0748 
     86 H86        29.7273   29.0425    0.0009 H         1 UNK         0.0940 
     87 H87        29.0243   27.4864    0.3820 H         1 UNK         0.0940 
     88 H88        28.3699   29.2335   -2.0521 H         1 UNK         0.0703 
     89 H89        27.9312   26.4891   -1.8454 H         1 UNK         0.3081 
     90 H90        24.9127   26.1944   -3.6091 H         1 UNK         0.0719 
     91 H91        26.1828   25.0911   -5.4428 H         1 UNK         0.0809 
     92 H92        26.2941   26.8398   -5.5544 H         1 UNK         0.0809 
     93 H93        27.6573   25.9193   -4.9420 H         1 UNK         0.0809 
     94 H94        25.3849   24.4685   -2.3448 H         1 UNK         0.2990 
     95 H95        26.5629   22.3314   -2.1050 H         1 UNK         0.0690 
     96 H96        28.4796   21.3105   -0.9077 H         1 UNK         0.0788 
     97 H97        29.3340   22.8539   -0.8973 H         1 UNK         0.0788 
     98 H98        29.0208   22.0262   -2.4164 H         1 UNK         0.0788 
     99 H99        27.3900   23.2520    0.5160 H         1 UNK         0.2993 
    100 H100       24.5370   24.8215    1.5198 H         1 UNK         0.0949 
    101 H101       24.7866   21.8341    2.1788 H         1 UNK         0.0767 
    102 H102       23.9307   23.0381    3.1442 H         1 UNK         0.0767 
    103 H103       23.3490   22.6214    1.5420 H         1 UNK         0.0767 
    104 H104       26.4050   23.4585    3.1503 H         1 UNK         0.3013 
    105 H105       26.4797   27.5086    0.4156 H         1 UNK         0.3121 
    106 H106       24.7999   27.9809    1.7195 H         1 UNK         0.0774 
    107 H107       24.6370   30.8444    0.6457 H         1 UNK         0.0815 
    108 H108       23.4470   30.0251    1.6396 H         1 UNK         0.0815 
    109 H109       23.7495   29.4626    0.0026 H         1 UNK         0.0815 
    110 H110       27.3140   30.5339    1.6489 H         1 UNK         0.2987 
    111 H111       27.9944   30.0252    4.4030 H         1 UNK         0.0949 
    112 H112       26.8386   32.7804    3.6442 H         1 UNK         0.0806 
    113 H113       26.1186   31.6498    4.7885 H         1 UNK         0.0806 
    114 H114       27.6522   32.4141    5.1596 H         1 UNK         0.0806 
    115 H115       29.9731   31.1639    4.9939 H         1 UNK         0.3010 
    116 H116       31.4237   32.9182    3.3954 H         1 UNK         0.0829 
    117 H117       31.8378   30.8863    1.8988 H         1 UNK         0.0813 
    118 H118       33.3038   31.4313    2.6766 H         1 UNK         0.0813 
    119 H119       32.4774   30.0180    3.2977 H         1 UNK         0.0813 
    120 H120       33.6861   33.1064    4.4262 H         1 UNK         0.3038 
    121 H121       33.5051   33.0637    7.2951 H         1 UNK         0.0769 
    122 H122       35.8991   33.5933    5.4498 H         1 UNK         0.0811 
    123 H123       35.8392   33.9405    7.1717 H         1 UNK         0.0811 
    124 H124       34.7813   34.8085    6.0726 H         1 UNK         0.0811 
    125 H125       34.8855   30.8308    4.9170 H         1 UNK         0.3204 
    126 H126       35.1113   28.6866    6.7613 H         1 UNK         0.0748 
    127 H127       37.7336   29.8705    5.6421 H         1 UNK         0.0771 
    128 H128       37.2991   29.7949    7.3482 H         1 UNK         0.0771 
    129 H129       37.6004   28.3173    6.4546 H         1 UNK         0.0771 
    130 H130       35.8554   26.7275    5.5320 H         1 UNK         0.2980 
    131 H131       34.8085   26.6556    2.8488 H         1 UNK         0.0545 
    132 H132       37.6709   26.8721    0.7659 H         1 UNK         0.3459 
    133 H133       35.9402   26.6740    0.8678 H         1 UNK         0.3459 
    134 H134       36.3729   24.4570    4.3048 H         1 UNK         0.0616 
    135 H135       34.6796   24.7478    4.5777 H         1 UNK         0.0616 
    136 H136       32.9544   23.2550    3.4696 H         1 UNK         0.0634 
    137 H137       32.8679   23.0292    1.7396 H         1 UNK         0.0634 
@<TRIPOS>BOND
     1    1    2 1    
     2    1   72 1    
     3    1   73 1    
     4    1   74 1    
     5    2    3 2    
     6    2    4 am   BACKBONE|DICT|INTERRES
     7    4    5 1    
     8    4   75 1    
     9    5    6 1    
    10    5   35 1    
    11    5   76 1    
    12    6    7 1    
    13    6   77 1    
    14    6   78 1    
    15    7    8 1    
    16    8    9 1    
    17    8   79 1    
    18    8   80 1    
    19    9   10 ar   
    20    9   14 ar   
    21   10   11 ar   
    22   10   81 1    
    23   11   12 ar   
    24   11   71 1    
    25   12   13 ar   
    26   12   82 1    
    27   13   14 ar   
    28   13   15 1    
    29   14   83 1    
    30   15   16 1    
    31   15   84 1    
    32   15   85 1    
    33   16   17 1    
    34   17   18 1    
    35   17   86 1    
    36   17   87 1    
    37   18   19 1    
    38   18   37 1    
    39   18   88 1    
    40   19   20 am   BACKBONE|DICT|INTERRES
    41   19   89 1    
    42   20   21 2    
    43   20   22 1    
    44   22   23 1    
    45   22   24 1    
    46   22   90 1    
    47   23   91 1    
    48   23   92 1    
    49   23   93 1    
    50   24   25 am   BACKBONE|DICT|INTERRES
    51   24   94 1    
    52   25   26 2    
    53   25   27 1    
    54   27   28 1    
    55   27   29 1    
    56   27   95 1    
    57   28   96 1    
    58   28   97 1    
    59   28   98 1    
    60   29   30 am   BACKBONE|DICT|INTERRES
    61   29   99 1    
    62   30   31 2    
    63   30   32 1    
    64   32   33 1    
    65   32   34 1    
    66   32  100 1    
    67   33  101 1    
    68   33  102 1    
    69   33  103 1    
    70   34   35 am   BACKBONE|DICT|INTERRES
    71   34  104 1    
    72   35   36 2    
    73   37   38 2    
    74   37   39 am   BACKBONE|DICT|INTERRES
    75   39   40 1    
    76   39  105 1    
    77   40   41 1    
    78   40   42 1    
    79   40  106 1    
    80   41  107 1    
    81   41  108 1    
    82   41  109 1    
    83   42   43 2    
    84   42   44 am   BACKBONE|DICT|INTERRES
    85   44   45 1    
    86   44  110 1    
    87   45   46 1    
    88   45   47 1    
    89   45  111 1    
    90   46  112 1    
    91   46  113 1    
    92   46  114 1    
    93   47   48 2    
    94   47   49 am   BACKBONE|DICT|INTERRES
    95   49   50 1    
    96   49  115 1    
    97   50   51 1    
    98   50   52 1    
    99   50  116 1    
   100   51  117 1    
   101   51  118 1    
   102   51  119 1    
   103   52   53 2    
   104   52   54 am   BACKBONE|DICT|INTERRES
   105   54   55 1    
   106   54  120 1    
   107   55   56 1    
   108   55   57 1    
   109   55  121 1    
   110   56  122 1    
   111   56  123 1    
   112   56  124 1    
   113   57   58 2    
   114   57   59 am   BACKBONE|DICT|INTERRES
   115   59   60 1    
   116   59  125 1    
   117   60   61 1    
   118   60   62 1    
   119   60  126 1    
   120   61  127 1    
   121   61  128 1    
   122   61  129 1    
   123   62   63 2    
   124   62   64 am   BACKBONE|DICT|INTERRES
   125   64   65 1    
   126   64  130 1    
   127   65   66 1    
   128   65   69 1    
   129   65  131 1    
   130   66   67 am   BACKBONE|DICT|INTERRES
   131   66   68 2    
   132   67  132 1    
   133   67  133 1    
   134   69   70 1    
   135   69  134 1    
   136   69  135 1    
   137   70   71 1    
   138   71  136 1    
   139   71  137 1    
@<TRIPOS>SUBSTRUCTURE
     1 UNK         1 GROUP             0       ****    0 ROOT    
