@<TRIPOS>MOLECULE
3R136
137   139    1
SMALL
USER_CHARGES


@<TRIPOS>ATOM
      1 CA         33.4094   24.1517   -4.6075 C.3       0 UNK        -0.1979 
      2 C          32.3562   23.9053   -3.5372 C.2       0 UNK         0.4864 
      3 O          31.8793   22.7779   -3.4033 O.2       0 UNK        -0.5359 
      4 N          31.9962   24.9533   -2.7805 N.am      1 UNK        -0.4318 
      5 CA         30.9959   24.9475   -1.7032 C.3       1 UNK         0.0824 
      6 C6         31.4284   24.0796   -0.4873 C.3       12 UNK        -0.0944 
      7 S7         30.8025   24.7322    1.0959 S.3       12 UNK        -0.2672 
      8 C8         31.2120   23.3415    2.1910 C.3       12 UNK         0.0333 
      9 C9         30.9363   23.6771    3.6488 C.ar      12 UNK        -0.0807 
     10 C10        31.8551   24.4409    4.3729 C.ar      12 UNK        -0.0894 
     11 C11        31.6379   24.7284    5.7228 C.ar      12 UNK        -0.0804 
     12 C12        30.4865   24.2448    6.3509 C.ar      12 UNK        -0.0824 
     13 C13        29.5548   23.4847    5.6359 C.ar      12 UNK        -0.0762 
     14 C14        29.7846   23.2039    4.2846 C.ar      12 UNK        -0.0782 
     15 C15        28.3091   22.9490    6.3268 C.3       12 UNK         0.0230 
     16 S16        26.7977   23.7951    5.7672 S.3       12 UNK        -0.2608 
     17 C17        27.0840   25.5028    6.3461 C.3       12 UNK        -0.0989 
     18 CA         27.4676   26.4642    5.1928 C.3       5 UNK         0.0716 
     19 N          26.4519   26.4782    4.1352 N.am      5 UNK        -0.4135 
     20 C          26.4612   27.2341    3.0298 C.2       4 UNK         0.5031 
     21 O          27.3560   28.0374    2.7469 O.2       4 UNK        -0.5229 
     22 CA         25.2244   27.0874    2.1217 C.3       4 UNK         0.0329 
     23 CB         24.0156   27.8155    2.7359 C.3       4 UNK        -0.2001 
     24 N          25.4340   27.5918    0.7621 N.am      4 UNK        -0.4303 
     25 C          26.3059   27.0861   -0.1189 C.2       3 UNK         0.5044 
     26 O          27.0203   26.1073    0.1086 O.2       3 UNK        -0.5152 
     27 CA         26.3814   27.8072   -1.4783 C.3       3 UNK         0.0319 
     28 CB         26.9653   29.2231   -1.3270 C.3       3 UNK        -0.2001 
     29 N          27.2032   27.0608   -2.4320 N.am      3 UNK        -0.4354 
     30 C          26.7940   25.9928   -3.1309 C.2       2 UNK         0.4964 
     31 O          25.6293   25.5923   -3.1568 O.2       2 UNK        -0.5047 
     32 CA         27.8686   25.2431   -3.9403 C.3       2 UNK         0.0288 
     33 CB         27.9375   25.7821   -5.3787 C.3       2 UNK        -0.2113 
     34 N          29.1989   25.3252   -3.3276 N.am      2 UNK        -0.4145 
     35 C          29.5751   24.6393   -2.2361 C.2       1 UNK         0.5006 
     36 O          28.8632   23.7951   -1.6880 O.2       1 UNK        -0.5103 
     37 C          27.7165   27.8850    5.7365 C.2       5 UNK         0.5055 
     38 O          26.7859   28.5044    6.2562 O.2       5 UNK        -0.5220 
     39 N          28.9494   28.3754    5.5595 N.am      6 UNK        -0.4450 
     40 CA         29.4458   29.7152    5.8957 C.3       6 UNK         0.0367 
     41 CB         29.3079   30.0115    7.4038 C.3       6 UNK        -0.1929 
     42 C          28.8995   30.8667    5.0245 C.2       6 UNK         0.5070 
     43 O          29.3290   32.0049    5.2190 O.2       6 UNK        -0.5237 
     44 N          28.0082   30.5794    4.0642 N.am      7 UNK        -0.4739 
     45 CA         27.6241   31.5090    2.9958 C.3       7 UNK         0.0276 
     46 CB         26.1828   31.2228    2.5451 C.3       7 UNK        -0.1927 
     47 C          28.5973   31.3986    1.8096 C.2       7 UNK         0.5013 
     48 O          28.8195   32.3885    1.1107 O.2       7 UNK        -0.5193 
     49 N          29.1691   30.2009    1.6209 N.am      8 UNK        -0.4253 
     50 CA         30.2806   29.9108    0.7167 C.3       8 UNK         0.0242 
     51 CB         30.4532   28.3819    0.6497 C.3       8 UNK        -0.2000 
     52 C          31.5953   30.5744    1.1708 C.2       8 UNK         0.4948 
     53 O          31.7013   31.0533    2.3023 O.2       8 UNK        -0.5275 
     54 N          32.6010   30.5444    0.2839 N.am      9 UNK        -0.4246 
     55 CA         33.9671   31.0065    0.5622 C.3       9 UNK         0.0261 
     56 CB         34.7848   31.0022   -0.7397 C.3       9 UNK        -0.1959 
     57 C          34.6806   30.1829    1.6523 C.2       9 UNK         0.5033 
     58 O          35.5228   30.7276    2.3677 O.2       9 UNK        -0.5390 
     59 N          34.3178   28.8987    1.7749 N.am      10 UNK        -0.4215 
     60 CA         34.7057   28.0280    2.8811 C.3       10 UNK         0.0240 
     61 CB         34.4930   26.5623    2.4693 C.3       10 UNK        -0.1982 
     62 C          33.8748   28.3852    4.1242 C.2       10 UNK         0.4970 
     63 O          32.6466   28.3817    4.0395 O.2       10 UNK        -0.4916 
     64 N          34.5706   28.7084    5.2219 N.am      11 UNK        -0.4279 
     65 CA         34.0720   29.1587    6.5378 C.3       11 UNK         0.1003 
     66 C          33.1627   30.4268    6.5783 C.2       11 UNK         0.5709 
     67 N          32.8599   31.0819    5.4655 N.am      11 UNK        -0.7358 
     68 O          32.7660   30.8607    7.6570 O.2       11 UNK        -0.4999 
     69 C69        33.5840   28.0023    7.4624 C.3       12 UNK        -0.0954 
     70 S70        32.0362   27.1767    6.9572 S.3       12 UNK        -0.2268 
     71 C71        32.6654   25.5326    6.5046 C.3       12 UNK         0.0203 
     72 H72        33.7512   25.1866   -4.6152 H         1 UNK         0.0888 
     73 H73        34.2742   23.5111   -4.4368 H         1 UNK         0.0888 
     74 H74        33.0039   23.9215   -5.5924 H         1 UNK         0.0888 
     75 H75        32.4402   25.8457   -2.9495 H         1 UNK         0.3017 
     76 H76        30.9552   25.9839   -1.3657 H         1 UNK         0.0873 
     77 H77        31.1299   23.0369   -0.6117 H         1 UNK         0.0745 
     78 H78        32.5167   24.0670   -0.4077 H         1 UNK         0.0745 
     79 H79        30.6415   22.4632    1.8850 H         1 UNK         0.0705 
     80 H80        32.2654   23.0838    2.0699 H         1 UNK         0.0705 
     81 H81        32.7467   24.8024    3.8832 H         1 UNK         0.1334 
     82 H82        30.3208   24.4614    7.3976 H         1 UNK         0.1417 
     83 H83        29.0666   22.6135    3.7313 H         1 UNK         0.1562 
     84 H84        28.3927   23.0386    7.4111 H         1 UNK         0.0748 
     85 H85        28.2136   21.8826    6.1171 H         1 UNK         0.0748 
     86 H86        27.8571   25.5000    7.1168 H         1 UNK         0.0940 
     87 H87        26.1724   25.8440    6.8412 H         1 UNK         0.0940 
     88 H88        28.3908   26.0986    4.7374 H         1 UNK         0.0703 
     89 H89        25.6712   25.8570    4.2868 H         1 UNK         0.3081 
     90 H90        24.9894   26.0236    2.0442 H         1 UNK         0.0719 
     91 H91        24.1942   28.8866    2.8341 H         1 UNK         0.0809 
     92 H92        23.1197   27.6791    2.1299 H         1 UNK         0.0809 
     93 H93        23.7870   27.4345    3.7321 H         1 UNK         0.0809 
     94 H94        24.9000   28.4065    0.4990 H         1 UNK         0.2990 
     95 H95        25.3668   27.8903   -1.8740 H         1 UNK         0.0690 
     96 H96        26.9921   29.7442   -2.2842 H         1 UNK         0.0788 
     97 H97        27.9796   29.1976   -0.9333 H         1 UNK         0.0788 
     98 H98        26.3695   29.8335   -0.6475 H         1 UNK         0.0788 
     99 H99        28.1846   27.2903   -2.4509 H         1 UNK         0.2993 
    100 H100       27.5728   24.1923   -3.9835 H         1 UNK         0.0949 
    101 H101       26.9654   25.7086   -5.8687 H         1 UNK         0.0767 
    102 H102       28.2372   26.8306   -5.4055 H         1 UNK         0.0767 
    103 H103       28.6460   25.2135   -5.9817 H         1 UNK         0.0767 
    104 H104       29.8575   25.9631   -3.7504 H         1 UNK         0.3013 
    105 H105       29.6322   27.7845    5.1025 H         1 UNK         0.3121 
    106 H106       30.5103   29.6704    5.6701 H         1 UNK         0.0774 
    107 H107       29.8304   30.9320    7.6667 H         1 UNK         0.0815 
    108 H108       28.2672   30.1344    7.7035 H         1 UNK         0.0815 
    109 H109       29.7435   29.2140    8.0056 H         1 UNK         0.0815 
    110 H110       27.7094   29.6166    3.9478 H         1 UNK         0.2987 
    111 H111       27.6643   32.5342    3.3706 H         1 UNK         0.0949 
    112 H112       26.0949   30.2512    2.0605 H         1 UNK         0.0806 
    113 H113       25.4899   31.2459    3.3862 H         1 UNK         0.0806 
    114 H114       25.8480   31.9717    1.8263 H         1 UNK         0.0806 
    115 H115       28.8665   29.4409    2.2182 H         1 UNK         0.3010 
    116 H116       30.0262   30.2943   -0.2731 H         1 UNK         0.0829 
    117 H117       29.5247   27.8806    0.3746 H         1 UNK         0.0813 
    118 H118       31.2035   28.0964   -0.0874 H         1 UNK         0.0813 
    119 H119       30.7701   27.9735    1.6113 H         1 UNK         0.0813 
    120 H120       32.4343   30.1518   -0.6317 H         1 UNK         0.3038 
    121 H121       33.9025   32.0356    0.9223 H         1 UNK         0.0769 
    122 H122       34.3369   31.6507   -1.4928 H         1 UNK         0.0811 
    123 H123       34.8681   30.0005   -1.1632 H         1 UNK         0.0811 
    124 H124       35.7982   31.3662   -0.5637 H         1 UNK         0.0811 
    125 H125       33.5863   28.5559    1.1715 H         1 UNK         0.3204 
    126 H126       35.7674   28.1746    3.0918 H         1 UNK         0.0748 
    127 H127       35.0912   26.3055    1.5949 H         1 UNK         0.0771 
    128 H128       34.7894   25.8870    3.2727 H         1 UNK         0.0771 
    129 H129       33.4483   26.3569    2.2305 H         1 UNK         0.0771 
    130 H130       35.5772   28.7078    5.1446 H         1 UNK         0.2980 
    131 H131       34.9834   29.5242    7.0123 H         1 UNK         0.0545 
    132 H132       33.0990   30.6987    4.5633 H         1 UNK         0.3459 
    133 H133       32.2747   31.9000    5.5208 H         1 UNK         0.3459 
    134 H134       33.4356   28.3755    8.4771 H         1 UNK         0.0616 
    135 H135       34.3754   27.2571    7.5527 H         1 UNK         0.0616 
    136 H136       32.9438   24.9917    7.4100 H         1 UNK         0.0634 
    137 H137       33.5781   25.6497    5.9181 H         1 UNK         0.0634 
@<TRIPOS>BOND
     1    1    2 1    
     2    1   72 1    
     3    1   73 1    
     4    1   74 1    
     5    2    3 2    
     6    2    4 am   BACKBONE|DICT|INTERRES
     7    4    5 1    
     8    4   75 1    
     9    5    6 1    
    10    5   35 1    
    11    5   76 1    
    12    6    7 1    
    13    6   77 1    
    14    6   78 1    
    15    7    8 1    
    16    8    9 1    
    17    8   79 1    
    18    8   80 1    
    19    9   10 ar   
    20    9   14 ar   
    21   10   11 ar   
    22   10   81 1    
    23   11   12 ar   
    24   11   71 1    
    25   12   13 ar   
    26   12   82 1    
    27   13   14 ar   
    28   13   15 1    
    29   14   83 1    
    30   15   16 1    
    31   15   84 1    
    32   15   85 1    
    33   16   17 1    
    34   17   18 1    
    35   17   86 1    
    36   17   87 1    
    37   18   19 1    
    38   18   37 1    
    39   18   88 1    
    40   19   20 am   BACKBONE|DICT|INTERRES
    41   19   89 1    
    42   20   21 2    
    43   20   22 1    
    44   22   23 1    
    45   22   24 1    
    46   22   90 1    
    47   23   91 1    
    48   23   92 1    
    49   23   93 1    
    50   24   25 am   BACKBONE|DICT|INTERRES
    51   24   94 1    
    52   25   26 2    
    53   25   27 1    
    54   27   28 1    
    55   27   29 1    
    56   27   95 1    
    57   28   96 1    
    58   28   97 1    
    59   28   98 1    
    60   29   30 am   BACKBONE|DICT|INTERRES
    61   29   99 1    
    62   30   31 2    
    63   30   32 1    
    64   32   33 1    
    65   32   34 1    
    66   32  100 1    
    67   33  101 1    
    68   33  102 1    
    69   33  103 1    
    70   34   35 am   BACKBONE|DICT|INTERRES
    71   34  104 1    
    72   35   36 2    
    73   37   38 2    
    74   37   39 am   BACKBONE|DICT|INTERRES
    75   39   40 1    
    76   39  105 1    
    77   40   41 1    
    78   40   42 1    
    79   40  106 1    
    80   41  107 1    
    81   41  108 1    
    82   41  109 1    
    83   42   43 2    
    84   42   44 am   BACKBONE|DICT|INTERRES
    85   44   45 1    
    86   44  110 1    
    87   45   46 1    
    88   45   47 1    
    89   45  111 1    
    90   46  112 1    
    91   46  113 1    
    92   46  114 1    
    93   47   48 2    
    94   47   49 am   BACKBONE|DICT|INTERRES
    95   49   50 1    
    96   49  115 1    
    97   50   51 1    
    98   50   52 1    
    99   50  116 1    
   100   51  117 1    
   101   51  118 1    
   102   51  119 1    
   103   52   53 2    
   104   52   54 am   BACKBONE|DICT|INTERRES
   105   54   55 1    
   106   54  120 1    
   107   55   56 1    
   108   55   57 1    
   109   55  121 1    
   110   56  122 1    
   111   56  123 1    
   112   56  124 1    
   113   57   58 2    
   114   57   59 am   BACKBONE|DICT|INTERRES
   115   59   60 1    
   116   59  125 1    
   117   60   61 1    
   118   60   62 1    
   119   60  126 1    
   120   61  127 1    
   121   61  128 1    
   122   61  129 1    
   123   62   63 2    
   124   62   64 am   BACKBONE|DICT|INTERRES
   125   64   65 1    
   126   64  130 1    
   127   65   66 1    
   128   65   69 1    
   129   65  131 1    
   130   66   67 am   BACKBONE|DICT|INTERRES
   131   66   68 2    
   132   67  132 1    
   133   67  133 1    
   134   69   70 1    
   135   69  134 1    
   136   69  135 1    
   137   70   71 1    
   138   71  136 1    
   139   71  137 1    
@<TRIPOS>SUBSTRUCTURE
     1 UNK         1 GROUP             0       ****    0 ROOT    
