@<TRIPOS>MOLECULE
3R136
137   139    1
SMALL
USER_CHARGES


@<TRIPOS>ATOM
      1 CA         27.8250   18.5316    4.6740 C.3       0 UNK        -0.1979 
      2 C          27.8365   18.8400    3.1838 C.2       0 UNK         0.4864 
      3 O          27.4146   18.0037    2.3831 O.2       0 UNK        -0.5359 
      4 N          28.3234   20.0292    2.8058 N.am      1 UNK        -0.4318 
      5 CA         28.3462   20.5197    1.4254 C.3       1 UNK         0.0824 
      6 C6         29.3231   21.7139    1.2798 C.3       12 UNK        -0.0944 
      7 S7         29.6401   22.1541   -0.4641 S.3       12 UNK        -0.2672 
      8 C8         31.4125   22.5390   -0.4530 C.3       12 UNK         0.0333 
      9 C9         31.6865   23.9198    0.1229 C.ar      12 UNK        -0.0807 
     10 C10        32.0120   24.0682    1.4734 C.ar      12 UNK        -0.0894 
     11 C11        32.3648   25.3201    1.9847 C.ar      12 UNK        -0.0804 
     12 C12        32.3821   26.4304    1.1338 C.ar      12 UNK        -0.0824 
     13 C13        32.0196   26.3021   -0.2111 C.ar      12 UNK        -0.0762 
     14 C14        31.6713   25.0431   -0.7095 C.ar      12 UNK        -0.0782 
     15 C15        32.0632   27.5039   -1.1462 C.3       12 UNK         0.0230 
     16 S16        30.4619   28.3689   -1.2414 S.3       12 UNK        -0.2608 
     17 C17        30.4835   29.3635    0.2913 C.3       12 UNK        -0.0989 
     18 CA         29.2893   29.0753    1.2413 C.3       5 UNK         0.0716 
     19 N          29.1165   27.6322    1.4656 N.am      5 UNK        -0.4135 
     20 C          28.0466   27.0181    1.9859 C.2       4 UNK         0.5031 
     21 O          27.0795   27.6106    2.4708 O.2       4 UNK        -0.5229 
     22 CA         28.0399   25.4813    1.8905 C.3       4 UNK         0.0329 
     23 CB         27.0221   24.8425    2.8577 C.3       4 UNK        -0.2001 
     24 N          27.8016   25.0068    0.5186 N.am      4 UNK        -0.4303 
     25 C          26.8052   25.3587   -0.3149 C.2       3 UNK         0.5044 
     26 O          25.9137   26.1650   -0.0508 O.2       3 UNK        -0.5152 
     27 CA         26.7849   24.6581   -1.6809 C.3       3 UNK         0.0319 
     28 CB         28.0592   24.9494   -2.4944 C.3       3 UNK        -0.2001 
     29 N          26.5988   23.2155   -1.5183 N.am      3 UNK        -0.4354 
     30 C          25.4177   22.6266   -1.2712 C.2       2 UNK         0.4964 
     31 O          24.3432   23.2273   -1.2431 O.2       2 UNK        -0.5047 
     32 CA         25.4293   21.1084   -1.0139 C.3       2 UNK         0.0288 
     33 CB         25.2656   20.3355   -2.3330 C.3       2 UNK        -0.2113 
     34 N          26.6483   20.6613   -0.3370 N.am      2 UNK        -0.4145 
     35 C          26.9238   20.8932    0.9541 C.2       1 UNK         0.5006 
     36 O          26.1324   21.4185    1.7418 O.2       1 UNK        -0.5103 
     37 C          29.3911   29.9081    2.5453 C.2       5 UNK         0.5055 
     38 O          30.3647   30.6382    2.7319 O.2       5 UNK        -0.5220 
     39 N          28.3990   29.7836    3.4352 N.am      6 UNK        -0.4450 
     40 CA         28.3317   30.4105    4.7606 C.3       6 UNK         0.0367 
     41 CB         27.1424   29.8181    5.5325 C.3       6 UNK        -0.1929 
     42 C          28.2562   31.9474    4.7421 C.2       6 UNK         0.5070 
     43 O          28.5652   32.5802    5.7517 O.2       6 UNK        -0.5237 
     44 N          27.8569   32.5224    3.6006 N.am      7 UNK        -0.4739 
     45 CA         27.8632   33.9639    3.3441 C.3       7 UNK         0.0276 
     46 CB         26.9334   34.2579    2.1548 C.3       7 UNK        -0.1927 
     47 C          29.2724   34.5320    3.0803 C.2       7 UNK         0.5013 
     48 O          29.4278   35.7542    3.0914 O.2       7 UNK        -0.5193 
     49 N          30.2590   33.6607    2.8312 N.am      8 UNK        -0.4253 
     50 CA         31.6519   34.0092    2.5700 C.3       8 UNK         0.0242 
     51 CB         32.0567   33.4022    1.2145 C.3       8 UNK        -0.2000 
     52 C          32.5441   33.4516    3.6852 C.2       8 UNK         0.4948 
     53 O          32.1507   32.5275    4.4013 O.2       8 UNK        -0.5275 
     54 N          33.7756   33.9725    3.7649 N.am      9 UNK        -0.4246 
     55 CA         34.8199   33.5270    4.6980 C.3       9 UNK         0.0261 
     56 CB         36.0135   34.4930    4.6115 C.3       9 UNK        -0.1959 
     57 C          35.2862   32.0708    4.4873 C.2       9 UNK         0.5033 
     58 O          35.9450   31.5196    5.3700 O.2       9 UNK        -0.5390 
     59 N          34.9396   31.4782    3.3351 N.am      10 UNK        -0.4215 
     60 CA         35.1848   30.0814    2.9818 C.3       10 UNK         0.0240 
     61 CB         34.7535   29.8397    1.5248 C.3       10 UNK        -0.1982 
     62 C          34.4883   29.0814    3.9202 C.2       10 UNK         0.4970 
     63 O          35.1153   28.0853    4.2810 O.2       10 UNK        -0.4916 
     64 N          33.2290   29.3575    4.2906 N.am      11 UNK        -0.4279 
     65 CA         32.4084   28.4933    5.1571 C.3       11 UNK         0.1003 
     66 C          31.7834   29.2341    6.3719 C.2       11 UNK         0.5709 
     67 N          31.7803   30.5605    6.4340 N.am      11 UNK        -0.7358 
     68 O          31.3023   28.5857    7.2975 O.2       11 UNK        -0.4999 
     69 C69        31.3472   27.7021    4.3315 C.3       12 UNK        -0.0954 
     70 S70        31.4333   25.8963    4.5539 S.3       12 UNK        -0.2268 
     71 C71        32.7998   25.4473    3.4378 C.3       12 UNK         0.0203 
     72 H72        26.8047   18.3515    5.0115 H         1 UNK         0.0888 
     73 H73        28.4144   17.6378    4.8770 H         1 UNK         0.0888 
     74 H74        28.2373   19.3504    5.2633 H         1 UNK         0.0888 
     75 H75        28.6247   20.6861    3.5110 H         1 UNK         0.3017 
     76 H76        28.7126   19.7028    0.7990 H         1 UNK         0.0873 
     77 H77        30.2741   21.4561    1.7480 H         1 UNK         0.0745 
     78 H78        28.9576   22.5925    1.8122 H         1 UNK         0.0745 
     79 H79        31.9594   21.7724    0.0981 H         1 UNK         0.0705 
     80 H80        31.7837   22.4912   -1.4779 H         1 UNK         0.0705 
     81 H81        32.0282   23.2017    2.1202 H         1 UNK         0.1334 
     82 H82        32.7016   27.3896    1.5139 H         1 UNK         0.1417 
     83 H83        31.4212   24.9316   -1.7561 H         1 UNK         0.1562 
     84 H84        32.3358   27.1745   -2.1501 H         1 UNK         0.0748 
     85 H85        32.8460   28.2005   -0.8418 H         1 UNK         0.0748 
     86 H86        30.4814   30.4157   -0.0006 H         1 UNK         0.0940 
     87 H87        31.4294   29.2078    0.8103 H         1 UNK         0.0940 
     88 H88        28.3863   29.4211    0.7339 H         1 UNK         0.0703 
     89 H89        29.8472   27.0545    1.0742 H         1 UNK         0.3081 
     90 H90        29.0346   25.1376    2.1804 H         1 UNK         0.0719 
     91 H91        25.9969   25.1183    2.6076 H         1 UNK         0.0809 
     92 H92        27.0849   23.7552    2.8431 H         1 UNK         0.0809 
     93 H93        27.2053   25.1637    3.8838 H         1 UNK         0.0809 
     94 H94        28.4774   24.3395    0.1718 H         1 UNK         0.2990 
     95 H95        25.9403   25.0570   -2.2475 H         1 UNK         0.0690 
     96 H96        28.9556   24.5480   -2.0243 H         1 UNK         0.0788 
     97 H97        28.2091   26.0241   -2.6091 H         1 UNK         0.0788 
     98 H98        27.9917   24.5244   -3.4959 H         1 UNK         0.0788 
     99 H99        27.4341   22.6468   -1.5062 H         1 UNK         0.2993 
    100 H100       24.5753   20.8761   -0.3732 H         1 UNK         0.0949 
    101 H101       24.3505   20.6330   -2.8473 H         1 UNK         0.0767 
    102 H102       26.0968   20.5170   -3.0156 H         1 UNK         0.0767 
    103 H103       25.2021   19.2613   -2.1578 H         1 UNK         0.0767 
    104 H104       27.3539   20.2247   -0.9135 H         1 UNK         0.3013 
    105 H105       27.6674   29.1102    3.2057 H         1 UNK         0.3121 
    106 H106       29.2453   30.1483    5.2932 H         1 UNK         0.0774 
    107 H107       26.1952   30.0253    5.0330 H         1 UNK         0.0815 
    108 H108       27.0809   30.2364    6.5382 H         1 UNK         0.0815 
    109 H109       27.2374   28.7371    5.6380 H         1 UNK         0.0815 
    110 H110       27.6065   31.9209    2.8295 H         1 UNK         0.2987 
    111 H111       27.4675   34.4757    4.2244 H         1 UNK         0.0949 
    112 H112       27.2807   33.7742    1.2409 H         1 UNK         0.0806 
    113 H113       25.9166   33.9175    2.3514 H         1 UNK         0.0806 
    114 H114       26.8805   35.3293    1.9557 H         1 UNK         0.0806 
    115 H115       30.0820   32.6656    2.9327 H         1 UNK         0.3010 
    116 H116       31.7815   35.0929    2.5310 H         1 UNK         0.0829 
    117 H117       33.0805   33.6677    0.9487 H         1 UNK         0.0813 
    118 H118       31.9912   32.3131    1.2236 H         1 UNK         0.0813 
    119 H119       31.4134   33.7656    0.4129 H         1 UNK         0.0813 
    120 H120       34.0275   34.7213    3.1348 H         1 UNK         0.3038 
    121 H121       34.4056   33.5837    5.7069 H         1 UNK         0.0769 
    122 H122       36.4613   34.4940    3.6169 H         1 UNK         0.0811 
    123 H123       36.7950   34.2136    5.3197 H         1 UNK         0.0811 
    124 H124       35.7167   35.5148    4.8492 H         1 UNK         0.0811 
    125 H125       34.4121   32.0264    2.6733 H         1 UNK         0.3204 
    126 H126       36.2607   29.9081    3.0539 H         1 UNK         0.0748 
    127 H127       34.9310   28.8039    1.2313 H         1 UNK         0.0771 
    128 H128       33.6928   30.0451    1.3765 H         1 UNK         0.0771 
    129 H129       35.3162   30.4692    0.8352 H         1 UNK         0.0771 
    130 H130       32.7892   30.2130    3.9760 H         1 UNK         0.2980 
    131 H131       33.0747   27.7715    5.6325 H         1 UNK         0.0545 
    132 H132       31.3759   30.9995    7.2448 H         1 UNK         0.3459 
    133 H133       32.0806   31.1468    5.6603 H         1 UNK         0.3459 
    134 H134       30.3314   27.9992    4.5952 H         1 UNK         0.0616 
    135 H135       31.4319   27.9219    3.2699 H         1 UNK         0.0616 
    136 H136       33.6042   26.1748    3.5240 H         1 UNK         0.0634 
    137 H137       33.2212   24.5007    3.7793 H         1 UNK         0.0634 
@<TRIPOS>BOND
     1    1    2 1    
     2    1   72 1    
     3    1   73 1    
     4    1   74 1    
     5    2    3 2    
     6    2    4 am   BACKBONE|DICT|INTERRES
     7    4    5 1    
     8    4   75 1    
     9    5    6 1    
    10    5   35 1    
    11    5   76 1    
    12    6    7 1    
    13    6   77 1    
    14    6   78 1    
    15    7    8 1    
    16    8    9 1    
    17    8   79 1    
    18    8   80 1    
    19    9   10 ar   
    20    9   14 ar   
    21   10   11 ar   
    22   10   81 1    
    23   11   12 ar   
    24   11   71 1    
    25   12   13 ar   
    26   12   82 1    
    27   13   14 ar   
    28   13   15 1    
    29   14   83 1    
    30   15   16 1    
    31   15   84 1    
    32   15   85 1    
    33   16   17 1    
    34   17   18 1    
    35   17   86 1    
    36   17   87 1    
    37   18   19 1    
    38   18   37 1    
    39   18   88 1    
    40   19   20 am   BACKBONE|DICT|INTERRES
    41   19   89 1    
    42   20   21 2    
    43   20   22 1    
    44   22   23 1    
    45   22   24 1    
    46   22   90 1    
    47   23   91 1    
    48   23   92 1    
    49   23   93 1    
    50   24   25 am   BACKBONE|DICT|INTERRES
    51   24   94 1    
    52   25   26 2    
    53   25   27 1    
    54   27   28 1    
    55   27   29 1    
    56   27   95 1    
    57   28   96 1    
    58   28   97 1    
    59   28   98 1    
    60   29   30 am   BACKBONE|DICT|INTERRES
    61   29   99 1    
    62   30   31 2    
    63   30   32 1    
    64   32   33 1    
    65   32   34 1    
    66   32  100 1    
    67   33  101 1    
    68   33  102 1    
    69   33  103 1    
    70   34   35 am   BACKBONE|DICT|INTERRES
    71   34  104 1    
    72   35   36 2    
    73   37   38 2    
    74   37   39 am   BACKBONE|DICT|INTERRES
    75   39   40 1    
    76   39  105 1    
    77   40   41 1    
    78   40   42 1    
    79   40  106 1    
    80   41  107 1    
    81   41  108 1    
    82   41  109 1    
    83   42   43 2    
    84   42   44 am   BACKBONE|DICT|INTERRES
    85   44   45 1    
    86   44  110 1    
    87   45   46 1    
    88   45   47 1    
    89   45  111 1    
    90   46  112 1    
    91   46  113 1    
    92   46  114 1    
    93   47   48 2    
    94   47   49 am   BACKBONE|DICT|INTERRES
    95   49   50 1    
    96   49  115 1    
    97   50   51 1    
    98   50   52 1    
    99   50  116 1    
   100   51  117 1    
   101   51  118 1    
   102   51  119 1    
   103   52   53 2    
   104   52   54 am   BACKBONE|DICT|INTERRES
   105   54   55 1    
   106   54  120 1    
   107   55   56 1    
   108   55   57 1    
   109   55  121 1    
   110   56  122 1    
   111   56  123 1    
   112   56  124 1    
   113   57   58 2    
   114   57   59 am   BACKBONE|DICT|INTERRES
   115   59   60 1    
   116   59  125 1    
   117   60   61 1    
   118   60   62 1    
   119   60  126 1    
   120   61  127 1    
   121   61  128 1    
   122   61  129 1    
   123   62   63 2    
   124   62   64 am   BACKBONE|DICT|INTERRES
   125   64   65 1    
   126   64  130 1    
   127   65   66 1    
   128   65   69 1    
   129   65  131 1    
   130   66   67 am   BACKBONE|DICT|INTERRES
   131   66   68 2    
   132   67  132 1    
   133   67  133 1    
   134   69   70 1    
   135   69  134 1    
   136   69  135 1    
   137   70   71 1    
   138   71  136 1    
   139   71  137 1    
@<TRIPOS>SUBSTRUCTURE
     1 UNK         1 GROUP             0       ****    0 ROOT    
