@<TRIPOS>MOLECULE
3R136
137   139    1
SMALL
USER_CHARGES


@<TRIPOS>ATOM
      1 CA         29.5750   18.6568   -1.3300 C.3       0 UNK        -0.1979 
      2 C          29.4578   20.1361   -1.6664 C.2       0 UNK         0.4864 
      3 O          29.2490   20.4827   -2.8298 O.2       0 UNK        -0.5359 
      4 N          29.5951   21.0074   -0.6572 N.am      1 UNK        -0.4318 
      5 CA         29.5166   22.4697   -0.7828 C.3       1 UNK         0.0824 
      6 C6         29.9840   23.1866    0.5087 C.3       12 UNK        -0.0944 
      7 S7         31.6797   22.7197    1.0022 S.3       12 UNK        -0.2672 
      8 C8         32.3441   24.3004    1.6413 C.3       12 UNK         0.0333 
      9 C9         31.7021   24.8389    2.9246 C.ar      12 UNK        -0.0807 
     10 C10        32.0824   26.1100    3.3690 C.ar      12 UNK        -0.0894 
     11 C11        31.5140   26.6698    4.5175 C.ar      12 UNK        -0.0804 
     12 C12        30.5574   25.9477    5.2338 C.ar      12 UNK        -0.0824 
     13 C13        30.1424   24.6902    4.7881 C.ar      12 UNK        -0.0762 
     14 C14        30.7403   24.1288    3.6573 C.ar      12 UNK        -0.0782 
     15 C15        28.9899   23.9735    5.4763 C.3       12 UNK         0.0230 
     16 S16        27.4341   24.9247    5.3656 S.3       12 UNK        -0.2608 
     17 C17        27.2077   25.1741    3.5640 C.3       12 UNK        -0.0989 
     18 CA         27.8500   26.4685    2.9885 C.3       5 UNK         0.0716 
     19 N          27.7965   26.4879    1.5224 N.am      5 UNK        -0.4135 
     20 C          28.4926   27.3463    0.7575 C.2       4 UNK         0.5031 
     21 O          29.3181   28.1343    1.2129 O.2       4 UNK        -0.5229 
     22 CA         28.1895   27.4007   -0.7517 C.3       4 UNK         0.0329 
     23 CB         29.3711   26.8602   -1.5726 C.3       4 UNK        -0.2001 
     24 N          26.9474   26.7211   -1.1343 N.am      4 UNK        -0.4303 
     25 C          25.7230   27.1429   -0.7767 C.2       3 UNK         0.5044 
     26 O          25.5280   28.1568   -0.1058 O.2       3 UNK        -0.5152 
     27 CA         24.5162   26.2707   -1.1702 C.3       3 UNK         0.0319 
     28 CB         23.8808   26.7920   -2.4686 C.3       3 UNK        -0.2001 
     29 N          24.8194   24.8441   -1.3190 N.am      3 UNK        -0.4354 
     30 C          25.3444   24.0537   -0.3720 C.2       2 UNK         0.4964 
     31 O          25.6437   24.4473    0.7573 O.2       2 UNK        -0.5047 
     32 CA         25.6444   22.5911   -0.7563 C.3       2 UNK         0.0288 
     33 CB         25.1589   22.1874   -2.1682 C.3       2 UNK        -0.2113 
     34 N          27.0719   22.2875   -0.6044 N.am      2 UNK        -0.4145 
     35 C          28.1003   22.9487   -1.1628 C.2       1 UNK         0.5006 
     36 O          27.9695   23.9019   -1.9335 O.2       1 UNK        -0.5103 
     37 C          27.3010   27.7729    3.6208 C.2       5 UNK         0.5055 
     38 O          27.7295   28.1429    4.7152 O.2       5 UNK        -0.5220 
     39 N          26.4082   28.4848    2.9130 N.am      6 UNK        -0.4450 
     40 CA         25.9068   29.7997    3.3223 C.3       6 UNK         0.0367 
     41 CB         24.6267   30.1219    2.5348 C.3       6 UNK        -0.1929 
     42 C          26.9403   30.9312    3.1520 C.2       6 UNK         0.5070 
     43 O          26.7861   31.9779    3.7826 O.2       6 UNK        -0.5237 
     44 N          27.9634   30.7267    2.3103 N.am      7 UNK        -0.4739 
     45 CA         29.0283   31.6920    2.0518 C.3       7 UNK         0.0276 
     46 CB         29.4904   31.5573    0.5886 C.3       7 UNK        -0.1927 
     47 C          30.1754   31.4598    3.0442 C.2       7 UNK         0.5013 
     48 O          31.1263   30.7458    2.7260 O.2       7 UNK        -0.5193 
     49 N          30.0757   32.0761    4.2313 N.am      8 UNK        -0.4253 
     50 CA         31.0456   31.9751    5.3336 C.3       8 UNK         0.0242 
     51 CB         30.6006   32.8830    6.4903 C.3       8 UNK        -0.2000 
     52 C          32.5046   32.2807    4.9430 C.2       8 UNK         0.4948 
     53 O          33.4208   31.6782    5.5018 O.2       8 UNK        -0.5275 
     54 N          32.6985   33.1552    3.9458 N.am      9 UNK        -0.4246 
     55 CA         33.9916   33.4726    3.3324 C.3       9 UNK         0.0261 
     56 CB         33.7900   34.5847    2.2901 C.3       9 UNK        -0.1959 
     57 C          34.7162   32.2672    2.6969 C.2       9 UNK         0.5033 
     58 O          35.9354   32.3311    2.5334 O.2       9 UNK        -0.5390 
     59 N          33.9832   31.1929    2.3645 N.am      10 UNK        -0.4215 
     60 CA         34.5394   29.9441    1.8396 C.3       10 UNK         0.0240 
     61 CB         33.4480   29.1899    1.0580 C.3       10 UNK        -0.1982 
     62 C          35.1645   29.0383    2.9197 C.2       10 UNK         0.4970 
     63 O          35.7767   28.0356    2.5487 O.2       10 UNK        -0.4916 
     64 N          35.0070   29.3689    4.2103 N.am      11 UNK        -0.4279 
     65 CA         35.5210   28.5687    5.3340 C.3       11 UNK         0.1003 
     66 C          36.0801   29.3972    6.5234 C.2       11 UNK         0.5709 
     67 N          35.7253   30.6643    6.6918 N.am      11 UNK        -0.7358 
     68 O          36.8852   28.8840    7.2974 O.2       11 UNK        -0.4999 
     69 C69        34.5189   27.4692    5.7786 C.3       12 UNK        -0.0954 
     70 S70        32.9357   28.1156    6.4246 S.3       12 UNK        -0.2268 
     71 C71        31.8722   28.0832    4.9481 C.3       12 UNK         0.0203 
     72 H72        28.6532   18.1383   -1.5922 H         1 UNK         0.0888 
     73 H73        30.3916   18.2075   -1.8946 H         1 UNK         0.0888 
     74 H74        29.7664   18.4932   -0.2695 H         1 UNK         0.0888 
     75 H75        29.8058   20.6625    0.2688 H         1 UNK         0.3017 
     76 H76        30.1831   22.7657   -1.5961 H         1 UNK         0.0873 
     77 H77        29.3089   22.9560    1.3346 H         1 UNK         0.0745 
     78 H78        29.9433   24.2695    0.3814 H         1 UNK         0.0745 
     79 H79        32.2607   25.0531    0.8555 H         1 UNK         0.0705 
     80 H80        33.4110   24.1659    1.8245 H         1 UNK         0.0705 
     81 H81        32.8148   26.6742    2.8079 H         1 UNK         0.1334 
     82 H82        30.0869   26.3931    6.1001 H         1 UNK         0.1417 
     83 H83        30.4220   23.1474    3.3409 H         1 UNK         0.1562 
     84 H84        29.2392   23.8201    6.5271 H         1 UNK         0.0748 
     85 H85        28.8303   22.9824    5.0488 H         1 UNK         0.0748 
     86 H86        26.1356   25.1697    3.3593 H         1 UNK         0.0940 
     87 H87        27.6081   24.3006    3.0468 H         1 UNK         0.0940 
     88 H88        28.9100   26.4533    3.2284 H         1 UNK         0.0703 
     89 H89        27.1187   25.8699    1.0886 H         1 UNK         0.3081 
     90 H90        28.0713   28.4562   -1.0070 H         1 UNK         0.0719 
     91 H91        29.5990   25.8243   -1.3293 H         1 UNK         0.0809 
     92 H92        29.1735   26.9190   -2.6429 H         1 UNK         0.0809 
     93 H93        30.2741   27.4407   -1.3779 H         1 UNK         0.0809 
     94 H94        27.0426   25.8477   -1.6414 H         1 UNK         0.2990 
     95 H95        23.7799   26.3626   -0.3691 H         1 UNK         0.0690 
     96 H96        24.5592   26.6951   -3.3173 H         1 UNK         0.0788 
     97 H97        23.6195   27.8476   -2.3790 H         1 UNK         0.0788 
     98 H98        22.9634   26.2533   -2.7070 H         1 UNK         0.0788 
     99 H99        24.6382   24.4363   -2.2250 H         1 UNK         0.2993 
    100 H100       25.1115   21.9741   -0.0310 H         1 UNK         0.0949 
    101 H101       25.6593   22.7516   -2.9563 H         1 UNK         0.0767 
    102 H102       25.3511   21.1306   -2.3552 H         1 UNK         0.0767 
    103 H103       24.0836   22.3363   -2.2768 H         1 UNK         0.0767 
    104 H104       27.2919   21.5326    0.0296 H         1 UNK         0.3013 
    105 H105       26.1166   28.1548    1.9997 H         1 UNK         0.3121 
    106 H106       25.6472   29.7523    4.3821 H         1 UNK         0.0774 
    107 H107       24.1880   31.0614    2.8736 H         1 UNK         0.0815 
    108 H108       24.8244   30.2236    1.4671 H         1 UNK         0.0815 
    109 H109       23.8716   29.3466    2.6651 H         1 UNK         0.0815 
    110 H110       28.0917   29.8089    1.9011 H         1 UNK         0.2987 
    111 H111       28.6545   32.7098    2.1852 H         1 UNK         0.0949 
    112 H112       29.8877   30.5650    0.3729 H         1 UNK         0.0806 
    113 H113       28.6709   31.7463   -0.1047 H         1 UNK         0.0806 
    114 H114       30.2793   32.2759    0.3636 H         1 UNK         0.0806 
    115 H115       29.2379   32.6119    4.4153 H         1 UNK         0.3010 
    116 H116       31.0227   30.9431    5.6867 H         1 UNK         0.0829 
    117 H117       31.2913   32.8092    7.3319 H         1 UNK         0.0813 
    118 H118       30.5626   33.9310    6.1904 H         1 UNK         0.0813 
    119 H119       29.6140   32.6019    6.8594 H         1 UNK         0.0813 
    120 H120       31.8859   33.5974    3.5421 H         1 UNK         0.3038 
    121 H121       34.6408   33.8557    4.1224 H         1 UNK         0.0769 
    122 H122       34.7394   34.8698    1.8344 H         1 UNK         0.0811 
    123 H123       33.3688   35.4829    2.7421 H         1 UNK         0.0811 
    124 H124       33.1251   34.2676    1.4855 H         1 UNK         0.0811 
    125 H125       32.9789   31.1964    2.5344 H         1 UNK         0.3204 
    126 H126       35.3360   30.1931    1.1353 H         1 UNK         0.0748 
    127 H127       33.8535   28.2981    0.5786 H         1 UNK         0.0771 
    128 H128       32.6322   28.8663    1.7046 H         1 UNK         0.0771 
    129 H129       33.0199   29.8124    0.2722 H         1 UNK         0.0771 
    130 H130       34.4924   30.2046    4.4605 H         1 UNK         0.2980 
    131 H131       36.4055   28.0414    4.9711 H         1 UNK         0.0545 
    132 H132       34.9609   31.0754    6.1608 H         1 UNK         0.3459 
    133 H133       36.1213   31.1774    7.4624 H         1 UNK         0.3459 
    134 H134       34.3235   26.7917    4.9476 H         1 UNK         0.0616 
    135 H135       34.9665   26.8465    6.5550 H         1 UNK         0.0616 
    136 H136       30.9509   28.6241    5.1677 H         1 UNK         0.0634 
    137 H137       32.3503   28.6300    4.1360 H         1 UNK         0.0634 
@<TRIPOS>BOND
     1    1    2 1    
     2    1   72 1    
     3    1   73 1    
     4    1   74 1    
     5    2    3 2    
     6    2    4 am   BACKBONE|DICT|INTERRES
     7    4    5 1    
     8    4   75 1    
     9    5    6 1    
    10    5   35 1    
    11    5   76 1    
    12    6    7 1    
    13    6   77 1    
    14    6   78 1    
    15    7    8 1    
    16    8    9 1    
    17    8   79 1    
    18    8   80 1    
    19    9   10 ar   
    20    9   14 ar   
    21   10   11 ar   
    22   10   81 1    
    23   11   12 ar   
    24   11   71 1    
    25   12   13 ar   
    26   12   82 1    
    27   13   14 ar   
    28   13   15 1    
    29   14   83 1    
    30   15   16 1    
    31   15   84 1    
    32   15   85 1    
    33   16   17 1    
    34   17   18 1    
    35   17   86 1    
    36   17   87 1    
    37   18   19 1    
    38   18   37 1    
    39   18   88 1    
    40   19   20 am   BACKBONE|DICT|INTERRES
    41   19   89 1    
    42   20   21 2    
    43   20   22 1    
    44   22   23 1    
    45   22   24 1    
    46   22   90 1    
    47   23   91 1    
    48   23   92 1    
    49   23   93 1    
    50   24   25 am   BACKBONE|DICT|INTERRES
    51   24   94 1    
    52   25   26 2    
    53   25   27 1    
    54   27   28 1    
    55   27   29 1    
    56   27   95 1    
    57   28   96 1    
    58   28   97 1    
    59   28   98 1    
    60   29   30 am   BACKBONE|DICT|INTERRES
    61   29   99 1    
    62   30   31 2    
    63   30   32 1    
    64   32   33 1    
    65   32   34 1    
    66   32  100 1    
    67   33  101 1    
    68   33  102 1    
    69   33  103 1    
    70   34   35 am   BACKBONE|DICT|INTERRES
    71   34  104 1    
    72   35   36 2    
    73   37   38 2    
    74   37   39 am   BACKBONE|DICT|INTERRES
    75   39   40 1    
    76   39  105 1    
    77   40   41 1    
    78   40   42 1    
    79   40  106 1    
    80   41  107 1    
    81   41  108 1    
    82   41  109 1    
    83   42   43 2    
    84   42   44 am   BACKBONE|DICT|INTERRES
    85   44   45 1    
    86   44  110 1    
    87   45   46 1    
    88   45   47 1    
    89   45  111 1    
    90   46  112 1    
    91   46  113 1    
    92   46  114 1    
    93   47   48 2    
    94   47   49 am   BACKBONE|DICT|INTERRES
    95   49   50 1    
    96   49  115 1    
    97   50   51 1    
    98   50   52 1    
    99   50  116 1    
   100   51  117 1    
   101   51  118 1    
   102   51  119 1    
   103   52   53 2    
   104   52   54 am   BACKBONE|DICT|INTERRES
   105   54   55 1    
   106   54  120 1    
   107   55   56 1    
   108   55   57 1    
   109   55  121 1    
   110   56  122 1    
   111   56  123 1    
   112   56  124 1    
   113   57   58 2    
   114   57   59 am   BACKBONE|DICT|INTERRES
   115   59   60 1    
   116   59  125 1    
   117   60   61 1    
   118   60   62 1    
   119   60  126 1    
   120   61  127 1    
   121   61  128 1    
   122   61  129 1    
   123   62   63 2    
   124   62   64 am   BACKBONE|DICT|INTERRES
   125   64   65 1    
   126   64  130 1    
   127   65   66 1    
   128   65   69 1    
   129   65  131 1    
   130   66   67 am   BACKBONE|DICT|INTERRES
   131   66   68 2    
   132   67  132 1    
   133   67  133 1    
   134   69   70 1    
   135   69  134 1    
   136   69  135 1    
   137   70   71 1    
   138   71  136 1    
   139   71  137 1    
@<TRIPOS>SUBSTRUCTURE
     1 UNK         1 GROUP             0       ****    0 ROOT    
