@<TRIPOS>MOLECULE
3R136
137   139    1
SMALL
USER_CHARGES


@<TRIPOS>ATOM
      1 CA         25.8268   23.6924    6.0073 C.3       0 UNK        -0.1979 
      2 C          26.3985   23.9098    4.6147 C.2       0 UNK         0.4864 
      3 O          26.4709   25.0519    4.1565 O.2       0 UNK        -0.5359 
      4 N          26.7888   22.8209    3.9368 N.am      1 UNK        -0.4318 
      5 CA         27.3272   22.7432    2.5673 C.3       1 UNK         0.0824 
      6 C6         28.6191   23.5709    2.3221 C.3       12 UNK        -0.0944 
      7 S7         29.9402   23.1377    3.5053 S.3       12 UNK        -0.2672 
      8 C8         31.4250   23.1216    2.4524 C.3       12 UNK         0.0333 
      9 C9         31.8239   24.5167    1.9891 C.ar      12 UNK        -0.0807 
     10 C10        32.2096   25.4869    2.9196 C.ar      12 UNK        -0.0894 
     11 C11        32.5954   26.7639    2.4999 C.ar      12 UNK        -0.0804 
     12 C12        32.6040   27.0655    1.1351 C.ar      12 UNK        -0.0824 
     13 C13        32.2337   26.0998    0.1942 C.ar      12 UNK        -0.0762 
     14 C14        31.8397   24.8298    0.6270 C.ar      12 UNK        -0.0782 
     15 C15        32.2849   26.4119   -1.2935 C.3       12 UNK         0.0230 
     16 S16        30.6231   26.5588   -2.0152 S.3       12 UNK        -0.2608 
     17 C17        30.1125   28.2191   -1.4373 C.3       12 UNK        -0.0989 
     18 CA         28.5760   28.4131   -1.3376 C.3       5 UNK         0.0716 
     19 N          27.8983   27.9743   -2.5490 N.am      5 UNK        -0.4135 
     20 C          27.3143   28.7233   -3.4878 C.2       4 UNK         0.5031 
     21 O          27.3479   29.9543   -3.5103 O.2       4 UNK        -0.5229 
     22 CA         26.5528   27.9575   -4.5925 C.3       4 UNK         0.0329 
     23 CB         27.3546   27.9661   -5.9043 C.3       4 UNK        -0.2001 
     24 N          26.2618   26.5667   -4.2162 N.am      4 UNK        -0.4303 
     25 C          25.3760   26.2100   -3.2747 C.2       3 UNK         0.5044 
     26 O          24.5676   26.9973   -2.7772 O.2       3 UNK        -0.5152 
     27 CA         25.4352   24.7602   -2.7612 C.3       3 UNK         0.0319 
     28 CB         26.7278   24.0082   -3.1439 C.3       3 UNK        -0.2001 
     29 N          25.3355   24.7958   -1.3024 N.am      3 UNK        -0.4354 
     30 C          24.3003   24.3403   -0.5903 C.2       2 UNK         0.4964 
     31 O          23.3396   23.7436   -1.0832 O.2       2 UNK        -0.5047 
     32 CA         24.3485   24.6028    0.9297 C.3       2 UNK         0.0288 
     33 CB         23.1428   23.9926    1.6750 C.3       2 UNK        -0.2113 
     34 N          25.5877   24.1836    1.5985 N.am      2 UNK        -0.4145 
     35 C          26.2337   23.0104    1.5101 C.2       1 UNK         0.5006 
     36 O          25.9639   22.1250    0.6970 O.2       1 UNK        -0.5103 
     37 C          27.9561   27.6433   -0.1549 C.2       5 UNK         0.5055 
     38 O          27.3486   26.5846   -0.3525 O.2       5 UNK        -0.5220 
     39 N          28.1119   28.1947    1.0504 N.am      6 UNK        -0.4450 
     40 CA         27.6351   27.6262    2.3072 C.3       6 UNK         0.0367 
     41 CB         26.3872   28.3956    2.7722 C.3       6 UNK        -0.1929 
     42 C          28.7592   27.7152    3.3453 C.2       6 UNK         0.5070 
     43 O          29.7222   28.4577    3.1344 O.2       6 UNK        -0.5237 
     44 N          28.6014   26.9845    4.4563 N.am      7 UNK        -0.4739 
     45 CA         29.5412   26.8620    5.5809 C.3       7 UNK         0.0276 
     46 CB         29.1125   25.6700    6.4555 C.3       7 UNK        -0.1927 
     47 C          29.7485   28.1495    6.4158 C.2       7 UNK         0.5013 
     48 O          29.6878   28.1054    7.6466 O.2       7 UNK        -0.5193 
     49 N          29.9978   29.2734    5.7391 N.am      8 UNK        -0.4253 
     50 CA         30.4066   30.5523    6.3157 C.3       8 UNK         0.0242 
     51 CB         30.0440   31.6674    5.3189 C.3       8 UNK        -0.2000 
     52 C          31.9166   30.5612    6.6090 C.2       8 UNK         0.4948 
     53 O          32.6523   29.7078    6.1119 O.2       8 UNK        -0.5275 
     54 N          32.3730   31.5671    7.3662 N.am      9 UNK        -0.4246 
     55 CA         33.7885   31.7754    7.7030 C.3       9 UNK         0.0261 
     56 CB         33.8892   32.8503    8.7982 C.3       9 UNK        -0.1959 
     57 C          34.6862   32.1462    6.5031 C.2       9 UNK         0.5033 
     58 O          35.9091   32.0574    6.6215 O.2       9 UNK        -0.5390 
     59 N          34.0771   32.5547    5.3799 N.am      10 UNK        -0.4215 
     60 CA         34.7282   33.0191    4.1508 C.3       10 UNK         0.0240 
     61 CB         33.6466   33.4156    3.1321 C.3       10 UNK        -0.1982 
     62 C          35.7221   32.0294    3.5144 C.2       10 UNK         0.4970 
     63 O          36.6889   32.4803    2.8983 O.2       10 UNK        -0.4916 
     64 N          35.4840   30.7200    3.6712 N.am      11 UNK        -0.4279 
     65 CA         36.4060   29.6592    3.2311 C.3       11 UNK         0.1003 
     66 C          37.5893   29.3828    4.2077 C.2       11 UNK         0.5709 
     67 N          37.6764   30.0291    5.3655 N.am      11 UNK        -0.7358 
     68 O          38.4644   28.5778    3.8969 O.2       11 UNK        -0.4999 
     69 C69        35.6556   28.3683    2.8047 C.3       12 UNK        -0.0954 
     70 S70        34.6766   27.6000    4.1389 S.3       12 UNK        -0.2268 
     71 C71        32.9778   27.8198    3.5266 C.3       12 UNK         0.0203 
     72 H72        25.6877   22.6347    6.2300 H         1 UNK         0.0888 
     73 H73        26.4919   24.1123    6.7599 H         1 UNK         0.0888 
     74 H74        24.8590   24.1854    6.0945 H         1 UNK         0.0888 
     75 H75        26.6831   21.9217    4.3856 H         1 UNK         0.3017 
     76 H76        27.6059   21.6955    2.4404 H         1 UNK         0.0873 
     77 H77        28.9811   23.4071    1.3054 H         1 UNK         0.0745 
     78 H78        28.4328   24.6393    2.4055 H         1 UNK         0.0745 
     79 H79        32.2507   22.6923    3.0215 H         1 UNK         0.0705 
     80 H80        31.2591   22.4543    1.6052 H         1 UNK         0.0705 
     81 H81        32.2058   25.2470    3.9739 H         1 UNK         0.1334 
     82 H82        32.9021   28.0513    0.8060 H         1 UNK         0.1417 
     83 H83        31.5528   24.0846   -0.1027 H         1 UNK         0.1562 
     84 H84        32.8199   25.6115   -1.8067 H         1 UNK         0.0748 
     85 H85        32.8489   27.3261   -1.4863 H         1 UNK         0.0748 
     86 H86        30.5188   28.9488   -2.1394 H         1 UNK         0.0940 
     87 H87        30.5874   28.4400   -0.4800 H         1 UNK         0.0940 
     88 H88        28.3681   29.4728   -1.1743 H         1 UNK         0.0703 
     89 H89        27.7680   26.9743   -2.5887 H         1 UNK         0.3081 
     90 H90        25.6073   28.4770   -4.7624 H         1 UNK         0.0719 
     91 H91        28.3153   27.4610   -5.7949 H         1 UNK         0.0809 
     92 H92        26.8057   27.4765   -6.7090 H         1 UNK         0.0809 
     93 H93        27.5593   28.9874   -6.2291 H         1 UNK         0.0809 
     94 H94        26.8713   25.8568   -4.5972 H         1 UNK         0.2990 
     95 H95        24.5873   24.2314   -3.2006 H         1 UNK         0.0690 
     96 H96        26.7337   23.0073   -2.7111 H         1 UNK         0.0788 
     97 H97        27.6220   24.5211   -2.7858 H         1 UNK         0.0788 
     98 H98        26.8160   23.8827   -4.2236 H         1 UNK         0.0788 
     99 H99        26.0556   25.3377   -0.8261 H         1 UNK         0.2993 
    100 H100       24.2925   25.6864    1.0460 H         1 UNK         0.0949 
    101 H101       23.1574   24.2548    2.7331 H         1 UNK         0.0767 
    102 H102       22.2000   24.3580    1.2658 H         1 UNK         0.0767 
    103 H103       23.1339   22.9044    1.5998 H         1 UNK         0.0767 
    104 H104       25.8999   24.7919    2.3513 H         1 UNK         0.3013 
    105 H105       28.7103   29.0032    1.1612 H         1 UNK         0.3121 
    106 H106       27.3739   26.5777    2.1710 H         1 UNK         0.0774 
    107 H107       26.6080   29.4468    2.9618 H         1 UNK         0.0815 
    108 H108       25.9870   27.9721    3.6943 H         1 UNK         0.0815 
    109 H109       25.5940   28.3481    2.0260 H         1 UNK         0.0815 
    110 H110       27.7727   26.3956    4.5079 H         1 UNK         0.2987 
    111 H111       30.5135   26.6104    5.1583 H         1 UNK         0.0949 
    112 H112       28.1467   25.8510    6.9276 H         1 UNK         0.0806 
    113 H113       29.0395   24.7531    5.8720 H         1 UNK         0.0806 
    114 H114       29.8362   25.4835    7.2500 H         1 UNK         0.0806 
    115 H115       30.0438   29.1898    4.7246 H         1 UNK         0.3010 
    116 H116       29.8660   30.7149    7.2506 H         1 UNK         0.0829 
    117 H117       28.9772   31.6624    5.0938 H         1 UNK         0.0813 
    118 H118       30.2812   32.6538    5.7190 H         1 UNK         0.0813 
    119 H119       30.5821   31.5563    4.3762 H         1 UNK         0.0813 
    120 H120       31.7150   32.2378    7.7383 H         1 UNK         0.3038 
    121 H121       34.1752   30.8384    8.1097 H         1 UNK         0.0769 
    122 H122       33.5022   33.8116    8.4580 H         1 UNK         0.0811 
    123 H123       34.9263   33.0055    9.0996 H         1 UNK         0.0811 
    124 H124       33.3360   32.5609    9.6920 H         1 UNK         0.0811 
    125 H125       33.0690   32.5852    5.3900 H         1 UNK         0.3204 
    126 H126       35.2950   33.9151    4.4116 H         1 UNK         0.0748 
    127 H127       34.0952   33.7915    2.2113 H         1 UNK         0.0771 
    128 H128       33.0146   32.5677    2.8639 H         1 UNK         0.0771 
    129 H129       33.0035   34.2056    3.5206 H         1 UNK         0.0771 
    130 H130       34.6902   30.4211    4.2202 H         1 UNK         0.2980 
    131 H131       36.8937   30.0168    2.3223 H         1 UNK         0.0545 
    132 H132       36.9818   30.7136    5.6462 H         1 UNK         0.3459 
    133 H133       38.4563   29.8365    5.9729 H         1 UNK         0.3459 
    134 H134       36.3585   27.6228    2.4291 H         1 UNK         0.0616 
    135 H135       35.0037   28.5961    1.9613 H         1 UNK         0.0616 
    136 H136       32.2994   27.7542    4.3750 H         1 UNK         0.0634 
    137 H137       32.8519   28.8258    3.1232 H         1 UNK         0.0634 
@<TRIPOS>BOND
     1    1    2 1    
     2    1   72 1    
     3    1   73 1    
     4    1   74 1    
     5    2    3 2    
     6    2    4 am   BACKBONE|DICT|INTERRES
     7    4    5 1    
     8    4   75 1    
     9    5    6 1    
    10    5   35 1    
    11    5   76 1    
    12    6    7 1    
    13    6   77 1    
    14    6   78 1    
    15    7    8 1    
    16    8    9 1    
    17    8   79 1    
    18    8   80 1    
    19    9   10 ar   
    20    9   14 ar   
    21   10   11 ar   
    22   10   81 1    
    23   11   12 ar   
    24   11   71 1    
    25   12   13 ar   
    26   12   82 1    
    27   13   14 ar   
    28   13   15 1    
    29   14   83 1    
    30   15   16 1    
    31   15   84 1    
    32   15   85 1    
    33   16   17 1    
    34   17   18 1    
    35   17   86 1    
    36   17   87 1    
    37   18   19 1    
    38   18   37 1    
    39   18   88 1    
    40   19   20 am   BACKBONE|DICT|INTERRES
    41   19   89 1    
    42   20   21 2    
    43   20   22 1    
    44   22   23 1    
    45   22   24 1    
    46   22   90 1    
    47   23   91 1    
    48   23   92 1    
    49   23   93 1    
    50   24   25 am   BACKBONE|DICT|INTERRES
    51   24   94 1    
    52   25   26 2    
    53   25   27 1    
    54   27   28 1    
    55   27   29 1    
    56   27   95 1    
    57   28   96 1    
    58   28   97 1    
    59   28   98 1    
    60   29   30 am   BACKBONE|DICT|INTERRES
    61   29   99 1    
    62   30   31 2    
    63   30   32 1    
    64   32   33 1    
    65   32   34 1    
    66   32  100 1    
    67   33  101 1    
    68   33  102 1    
    69   33  103 1    
    70   34   35 am   BACKBONE|DICT|INTERRES
    71   34  104 1    
    72   35   36 2    
    73   37   38 2    
    74   37   39 am   BACKBONE|DICT|INTERRES
    75   39   40 1    
    76   39  105 1    
    77   40   41 1    
    78   40   42 1    
    79   40  106 1    
    80   41  107 1    
    81   41  108 1    
    82   41  109 1    
    83   42   43 2    
    84   42   44 am   BACKBONE|DICT|INTERRES
    85   44   45 1    
    86   44  110 1    
    87   45   46 1    
    88   45   47 1    
    89   45  111 1    
    90   46  112 1    
    91   46  113 1    
    92   46  114 1    
    93   47   48 2    
    94   47   49 am   BACKBONE|DICT|INTERRES
    95   49   50 1    
    96   49  115 1    
    97   50   51 1    
    98   50   52 1    
    99   50  116 1    
   100   51  117 1    
   101   51  118 1    
   102   51  119 1    
   103   52   53 2    
   104   52   54 am   BACKBONE|DICT|INTERRES
   105   54   55 1    
   106   54  120 1    
   107   55   56 1    
   108   55   57 1    
   109   55  121 1    
   110   56  122 1    
   111   56  123 1    
   112   56  124 1    
   113   57   58 2    
   114   57   59 am   BACKBONE|DICT|INTERRES
   115   59   60 1    
   116   59  125 1    
   117   60   61 1    
   118   60   62 1    
   119   60  126 1    
   120   61  127 1    
   121   61  128 1    
   122   61  129 1    
   123   62   63 2    
   124   62   64 am   BACKBONE|DICT|INTERRES
   125   64   65 1    
   126   64  130 1    
   127   65   66 1    
   128   65   69 1    
   129   65  131 1    
   130   66   67 am   BACKBONE|DICT|INTERRES
   131   66   68 2    
   132   67  132 1    
   133   67  133 1    
   134   69   70 1    
   135   69  134 1    
   136   69  135 1    
   137   70   71 1    
   138   71  136 1    
   139   71  137 1    
@<TRIPOS>SUBSTRUCTURE
     1 UNK         1 GROUP             0       ****    0 ROOT    
