@<TRIPOS>MOLECULE
3R136
137   139    1
SMALL
USER_CHARGES


@<TRIPOS>ATOM
      1 CA         29.9150   23.5925   -5.2213 C.3       0 UNK        -0.1979 
      2 C          29.8052   24.2113   -3.8355 C.2       0 UNK         0.4864 
      3 O          30.2916   25.3215   -3.6232 O.2       0 UNK        -0.5359 
      4 N          29.1697   23.5018   -2.8982 N.am      1 UNK        -0.4318 
      5 CA         28.9049   23.9176   -1.5221 C.3       1 UNK         0.0824 
      6 C6         30.1790   23.8839   -0.6281 C.3       12 UNK        -0.0944 
      7 S7         30.0902   25.0198    0.8011 S.3       12 UNK        -0.2672 
      8 C8         30.1962   23.8473    2.1925 C.3       12 UNK         0.0333 
      9 C9         30.1888   24.5757    3.5275 C.ar      12 UNK        -0.0807 
     10 C10        31.3666   24.6917    4.2697 C.ar      12 UNK        -0.0894 
     11 C11        31.3733   25.3716    5.4900 C.ar      12 UNK        -0.0804 
     12 C12        30.1901   25.9497    5.9604 C.ar      12 UNK        -0.0824 
     13 C13        28.9988   25.8395    5.2332 C.ar      12 UNK        -0.0762 
     14 C14        29.0045   25.1275    4.0262 C.ar      12 UNK        -0.0782 
     15 C15        27.7255   26.4672    5.8063 C.3       12 UNK         0.0230 
     16 S16        26.4607   26.9612    4.5801 S.3       12 UNK        -0.2608 
     17 C17        27.3201   28.2634    3.6324 C.3       12 UNK        -0.0989 
     18 CA         27.4627   27.8736    2.1393 C.3       5 UNK         0.0716 
     19 N          26.1658   27.7494    1.4656 N.am      5 UNK        -0.4135 
     20 C          25.9474   26.9683    0.4036 C.2       4 UNK         0.5031 
     21 O          26.8236   26.2689   -0.1163 O.2       4 UNK        -0.5229 
     22 CA         24.5367   26.9657   -0.1945 C.3       4 UNK         0.0329 
     23 CB         24.3892   28.0437   -1.2807 C.3       4 UNK        -0.2001 
     24 N          24.3562   25.6445   -0.7743 N.am      4 UNK        -0.4303 
     25 C          23.2256   24.9361   -0.8437 C.2       3 UNK         0.5044 
     26 O          22.1046   25.3928   -0.6180 O.2       3 UNK        -0.5152 
     27 CA         23.3984   23.4393   -1.1713 C.3       3 UNK         0.0319 
     28 CB         23.3653   23.2066   -2.6900 C.3       3 UNK        -0.2001 
     29 N          24.6499   22.9012   -0.6219 N.am      3 UNK        -0.4354 
     30 C          24.9259   22.7958    0.6858 C.2       2 UNK         0.4964 
     31 O          24.0890   22.9651    1.5728 O.2       2 UNK        -0.5047 
     32 CA         26.3848   22.5192    1.0871 C.3       2 UNK         0.0288 
     33 CB         26.6774   21.0075    1.1567 C.3       2 UNK        -0.2113 
     34 N          27.3844   23.2391    0.2807 N.am      2 UNK        -0.4145 
     35 C          27.7603   23.0317   -0.9874 C.2       1 UNK         0.5006 
     36 O          27.2341   22.1930   -1.7268 O.2       1 UNK        -0.5103 
     37 C          28.3775   28.8326    1.3561 C.2       5 UNK         0.5055 
     38 O          28.6727   29.9314    1.8243 O.2       5 UNK        -0.5220 
     39 N          28.8205   28.3951    0.1705 N.am      6 UNK        -0.4450 
     40 CA         29.7552   29.1147   -0.7015 C.3       6 UNK         0.0367 
     41 CB         29.9170   28.3319   -2.0122 C.3       6 UNK        -0.1929 
     42 C          31.1296   29.3608   -0.0510 C.2       6 UNK         0.5070 
     43 O          31.7892   30.3495   -0.3704 O.2       6 UNK        -0.5237 
     44 N          31.5182   28.4742    0.8741 N.am      7 UNK        -0.4739 
     45 CA         32.7442   28.5543    1.6657 C.3       7 UNK         0.0276 
     46 CB         33.0881   27.1463    2.1715 C.3       7 UNK        -0.1927 
     47 C          32.6756   29.5495    2.8408 C.2       7 UNK         0.5013 
     48 O          33.6786   29.6877    3.5418 O.2       7 UNK        -0.5193 
     49 N          31.5390   30.2381    3.0519 N.am      8 UNK        -0.4253 
     50 CA         31.3062   31.1939    4.1492 C.3       8 UNK         0.0242 
     51 CB         29.8858   31.7707    4.0546 C.3       8 UNK        -0.2000 
     52 C          32.3343   32.3341    4.2719 C.2       8 UNK         0.4948 
     53 O          32.5114   32.8566    5.3719 O.2       8 UNK        -0.5275 
     54 N          33.0330   32.6642    3.1763 N.am      9 UNK        -0.4246 
     55 CA         34.1849   33.5718    3.1626 C.3       9 UNK         0.0261 
     56 CB         34.6388   33.7888    1.7100 C.3       9 UNK        -0.1959 
     57 C          35.3670   33.0894    4.0304 C.2       9 UNK         0.5033 
     58 O          36.1249   33.9276    4.5212 O.2       9 UNK        -0.5390 
     59 N          35.4958   31.7676    4.2120 N.am      10 UNK        -0.4215 
     60 CA         36.4616   31.1284    5.1047 C.3       10 UNK         0.0240 
     61 CB         37.1768   29.9938    4.3515 C.3       10 UNK        -0.1982 
     62 C          35.7702   30.5836    6.3645 C.2       10 UNK         0.4970 
     63 O          36.3076   30.7498    7.4601 O.2       10 UNK        -0.4916 
     64 N          34.6098   29.9351    6.1923 N.am      11 UNK        -0.4279 
     65 CA         33.8428   29.2883    7.2695 C.3       11 UNK         0.1003 
     66 C          33.1442   30.2621    8.2606 C.2       11 UNK         0.5709 
     67 N          32.9039   31.5209    7.9165 N.am      11 UNK        -0.7358 
     68 O          32.8219   29.8649    9.3778 O.2       11 UNK        -0.4999 
     69 C69        32.8379   28.2453    6.7128 C.3       12 UNK        -0.0954 
     70 S70        33.6733   26.8866    5.8289 S.3       12 UNK        -0.2268 
     71 C71        32.6571   25.4546    6.3045 C.3       12 UNK         0.0203 
     72 H72        30.9625   23.4803   -5.4996 H         1 UNK         0.0888 
     73 H73        29.4447   22.6103   -5.2676 H         1 UNK         0.0888 
     74 H74        29.4329   24.2345   -5.9579 H         1 UNK         0.0888 
     75 H75        28.7312   22.6178   -3.1312 H         1 UNK         0.3017 
     76 H76        28.5264   24.9404   -1.5696 H         1 UNK         0.0873 
     77 H77        31.0491   24.2015   -1.2042 H         1 UNK         0.0745 
     78 H78        30.4064   22.8670   -0.3023 H         1 UNK         0.0745 
     79 H79        29.3670   23.1405    2.1596 H         1 UNK         0.0705 
     80 H80        31.1065   23.2547    2.0877 H         1 UNK         0.0705 
     81 H81        32.2837   24.2564    3.8965 H         1 UNK         0.1334 
     82 H82        30.1952   26.4772    6.9045 H         1 UNK         0.1417 
     83 H83        28.0902   25.0070    3.4633 H         1 UNK         0.1562 
     84 H84        27.9789   27.3454    6.4026 H         1 UNK         0.0748 
     85 H85        27.2732   25.7511    6.4934 H         1 UNK         0.0748 
     86 H86        28.3021   28.4370    4.0778 H         1 UNK         0.0940 
     87 H87        26.7704   29.2003    3.7397 H         1 UNK         0.0940 
     88 H88        27.9600   26.9032    2.1106 H         1 UNK         0.0703 
     89 H89        25.4130   28.3134    1.8325 H         1 UNK         0.3081 
     90 H90        23.8058   27.1257    0.6012 H         1 UNK         0.0719 
     91 H91        23.3977   28.0155   -1.7331 H         1 UNK         0.0809 
     92 H92        25.1238   27.9160   -2.0771 H         1 UNK         0.0809 
     93 H93        24.5279   29.0418   -0.8636 H         1 UNK         0.0809 
     94 H94        25.2341   25.1716   -0.9494 H         1 UNK         0.2990 
     95 H95        22.5651   22.8978   -0.7186 H         1 UNK         0.0690 
     96 H96        23.4254   22.1447   -2.9293 H         1 UNK         0.0788 
     97 H97        24.1896   23.7117   -3.1953 H         1 UNK         0.0788 
     98 H98        22.4370   23.5837   -3.1216 H         1 UNK         0.0788 
     99 H99        25.3989   22.6883   -1.2743 H         1 UNK         0.2993 
    100 H100       26.4988   22.9133    2.0986 H         1 UNK         0.0949 
    101 H101       27.6955   20.8163    1.4962 H         1 UNK         0.0767 
    102 H102       26.0036   20.5154    1.8593 H         1 UNK         0.0767 
    103 H103       26.5473   20.5182    0.1911 H         1 UNK         0.0767 
    104 H104       27.8320   24.0171    0.7489 H         1 UNK         0.3013 
    105 H105       28.4826   27.4937   -0.1521 H         1 UNK         0.3121 
    106 H106       29.3177   30.0890   -0.9288 H         1 UNK         0.0774 
    107 H107       30.5811   28.8546   -2.7019 H         1 UNK         0.0815 
    108 H108       30.3431   27.3432   -1.8362 H         1 UNK         0.0815 
    109 H109       28.9617   28.1987   -2.5202 H         1 UNK         0.0815 
    110 H110       30.9155   27.6833    1.0556 H         1 UNK         0.2987 
    111 H111       33.5550   28.8881    1.0146 H         1 UNK         0.0949 
    112 H112       32.3301   26.7855    2.8649 H         1 UNK         0.0806 
    113 H113       33.1644   26.4311    1.3524 H         1 UNK         0.0806 
    114 H114       34.0428   27.1383    2.6993 H         1 UNK         0.0806 
    115 H115       30.7535   30.0735    2.4326 H         1 UNK         0.3010 
    116 H116       31.3674   30.6300    5.0801 H         1 UNK         0.0829 
    117 H117       29.1343   30.9938    4.1926 H         1 UNK         0.0813 
    118 H118       29.7106   32.5200    4.8282 H         1 UNK         0.0813 
    119 H119       29.7070   32.2477    3.0903 H         1 UNK         0.0813 
    120 H120       32.8132   32.1906    2.3117 H         1 UNK         0.3038 
    121 H121       33.8540   34.5307    3.5669 H         1 UNK         0.0769 
    122 H122       35.4805   34.4814    1.6640 H         1 UNK         0.0811 
    123 H123       33.8392   34.2133    1.1025 H         1 UNK         0.0811 
    124 H124       34.9583   32.8563    1.2429 H         1 UNK         0.0811 
    125 H125       34.8079   31.1484    3.7895 H         1 UNK         0.3204 
    126 H126       37.2174   31.8485    5.4255 H         1 UNK         0.0748 
    127 H127       37.9038   29.4958    4.9946 H         1 UNK         0.0771 
    128 H128       36.4768   29.2343    3.9998 H         1 UNK         0.0771 
    129 H129       37.7177   30.3755    3.4855 H         1 UNK         0.0771 
    130 H130       34.2493   29.8016    5.2508 H         1 UNK         0.2980 
    131 H131       34.5650   28.7375    7.8757 H         1 UNK         0.0545 
    132 H132       33.0927   31.8673    6.9827 H         1 UNK         0.3459 
    133 H133       32.4587   32.1283    8.5849 H         1 UNK         0.3459 
    134 H134       32.1249   28.7095    6.0323 H         1 UNK         0.0616 
    135 H135       32.2494   27.8194    7.5271 H         1 UNK         0.0616 
    136 H136       33.2456   24.5491    6.1491 H         1 UNK         0.0634 
    137 H137       32.4367   25.4872    7.3724 H         1 UNK         0.0634 
@<TRIPOS>BOND
     1    1    2 1    
     2    1   72 1    
     3    1   73 1    
     4    1   74 1    
     5    2    3 2    
     6    2    4 am   BACKBONE|DICT|INTERRES
     7    4    5 1    
     8    4   75 1    
     9    5    6 1    
    10    5   35 1    
    11    5   76 1    
    12    6    7 1    
    13    6   77 1    
    14    6   78 1    
    15    7    8 1    
    16    8    9 1    
    17    8   79 1    
    18    8   80 1    
    19    9   10 ar   
    20    9   14 ar   
    21   10   11 ar   
    22   10   81 1    
    23   11   12 ar   
    24   11   71 1    
    25   12   13 ar   
    26   12   82 1    
    27   13   14 ar   
    28   13   15 1    
    29   14   83 1    
    30   15   16 1    
    31   15   84 1    
    32   15   85 1    
    33   16   17 1    
    34   17   18 1    
    35   17   86 1    
    36   17   87 1    
    37   18   19 1    
    38   18   37 1    
    39   18   88 1    
    40   19   20 am   BACKBONE|DICT|INTERRES
    41   19   89 1    
    42   20   21 2    
    43   20   22 1    
    44   22   23 1    
    45   22   24 1    
    46   22   90 1    
    47   23   91 1    
    48   23   92 1    
    49   23   93 1    
    50   24   25 am   BACKBONE|DICT|INTERRES
    51   24   94 1    
    52   25   26 2    
    53   25   27 1    
    54   27   28 1    
    55   27   29 1    
    56   27   95 1    
    57   28   96 1    
    58   28   97 1    
    59   28   98 1    
    60   29   30 am   BACKBONE|DICT|INTERRES
    61   29   99 1    
    62   30   31 2    
    63   30   32 1    
    64   32   33 1    
    65   32   34 1    
    66   32  100 1    
    67   33  101 1    
    68   33  102 1    
    69   33  103 1    
    70   34   35 am   BACKBONE|DICT|INTERRES
    71   34  104 1    
    72   35   36 2    
    73   37   38 2    
    74   37   39 am   BACKBONE|DICT|INTERRES
    75   39   40 1    
    76   39  105 1    
    77   40   41 1    
    78   40   42 1    
    79   40  106 1    
    80   41  107 1    
    81   41  108 1    
    82   41  109 1    
    83   42   43 2    
    84   42   44 am   BACKBONE|DICT|INTERRES
    85   44   45 1    
    86   44  110 1    
    87   45   46 1    
    88   45   47 1    
    89   45  111 1    
    90   46  112 1    
    91   46  113 1    
    92   46  114 1    
    93   47   48 2    
    94   47   49 am   BACKBONE|DICT|INTERRES
    95   49   50 1    
    96   49  115 1    
    97   50   51 1    
    98   50   52 1    
    99   50  116 1    
   100   51  117 1    
   101   51  118 1    
   102   51  119 1    
   103   52   53 2    
   104   52   54 am   BACKBONE|DICT|INTERRES
   105   54   55 1    
   106   54  120 1    
   107   55   56 1    
   108   55   57 1    
   109   55  121 1    
   110   56  122 1    
   111   56  123 1    
   112   56  124 1    
   113   57   58 2    
   114   57   59 am   BACKBONE|DICT|INTERRES
   115   59   60 1    
   116   59  125 1    
   117   60   61 1    
   118   60   62 1    
   119   60  126 1    
   120   61  127 1    
   121   61  128 1    
   122   61  129 1    
   123   62   63 2    
   124   62   64 am   BACKBONE|DICT|INTERRES
   125   64   65 1    
   126   64  130 1    
   127   65   66 1    
   128   65   69 1    
   129   65  131 1    
   130   66   67 am   BACKBONE|DICT|INTERRES
   131   66   68 2    
   132   67  132 1    
   133   67  133 1    
   134   69   70 1    
   135   69  134 1    
   136   69  135 1    
   137   70   71 1    
   138   71  136 1    
   139   71  137 1    
@<TRIPOS>SUBSTRUCTURE
     1 UNK         1 GROUP             0       ****    0 ROOT    
