@<TRIPOS>MOLECULE
3R136
137   139    1
SMALL
USER_CHARGES


@<TRIPOS>ATOM
      1 CA         27.6634   22.1292    0.5035 C.3       0 UNK        -0.1979 
      2 C          27.9069   23.5784    0.8926 C.2       0 UNK         0.4864 
      3 O          27.5966   24.4790    0.1094 O.2       0 UNK        -0.5359 
      4 N          28.4517   23.8147    2.0943 N.am      1 UNK        -0.4318 
      5 CA         28.7216   25.1481    2.6443 C.3       1 UNK         0.0824 
      6 C6         29.4993   25.0989    3.9864 C.3       12 UNK        -0.0944 
      7 S7         30.9410   23.9794    4.1398 S.3       12 UNK        -0.2672 
      8 C8         31.7059   23.8549    2.4878 C.3       12 UNK         0.0333 
      9 C9         32.3050   25.1548    1.9652 C.ar      12 UNK        -0.0807 
     10 C10        33.0623   25.9950    2.7897 C.ar      12 UNK        -0.0894 
     11 C11        33.6687   27.1433    2.2707 C.ar      12 UNK        -0.0804 
     12 C12        33.5130   27.4496    0.9154 C.ar      12 UNK        -0.0824 
     13 C13        32.7544   26.6219    0.0828 C.ar      12 UNK        -0.0762 
     14 C14        32.1567   25.4762    0.6134 C.ar      12 UNK        -0.0782 
     15 C15        32.6010   26.9511   -1.3950 C.3       12 UNK         0.0230 
     16 S16        31.1910   28.0601   -1.6948 S.3       12 UNK        -0.2608 
     17 C17        29.7726   26.9734   -1.3145 C.3       12 UNK        -0.0989 
     18 CA         28.5235   27.2997   -2.1676 C.3       5 UNK         0.0716 
     19 N          27.5599   26.2011   -2.1207 N.am      5 UNK        -0.4135 
     20 C          26.5729   26.0160   -3.0068 C.2       4 UNK         0.5031 
     21 O          26.4339   26.6860   -4.0315 O.2       4 UNK        -0.5229 
     22 CA         25.5604   24.9091   -2.6901 C.3       4 UNK         0.0329 
     23 CB         26.1612   23.5209   -2.9709 C.3       4 UNK        -0.2001 
     24 N          25.1357   24.9872   -1.2912 N.am      4 UNK        -0.4303 
     25 C          23.9101   25.3437   -0.8824 C.2       3 UNK         0.5044 
     26 O          22.9835   25.6352   -1.6417 O.2       3 UNK        -0.5152 
     27 CA         23.6672   25.3632    0.6347 C.3       3 UNK         0.0319 
     28 CB         23.5442   23.9324    1.1850 C.3       3 UNK        -0.2001 
     29 N          24.7156   26.0725    1.3652 N.am      3 UNK        -0.4354 
     30 C          24.8735   27.4012    1.4164 C.2       2 UNK         0.4964 
     31 O          24.1119   28.1914    0.8568 O.2       2 UNK        -0.5047 
     32 CA         26.0510   27.9621    2.2486 C.3       2 UNK         0.0288 
     33 CB         25.5753   28.3763    3.6554 C.3       2 UNK        -0.2113 
     34 N          27.2541   27.1123    2.3195 N.am      2 UNK        -0.4145 
     35 C          27.3804   25.8864    2.8452 C.2       1 UNK         0.5006 
     36 O          26.4689   25.3008    3.4357 O.2       1 UNK        -0.5103 
     37 C          27.8511   28.6044   -1.6988 C.2       5 UNK         0.5055 
     38 O          26.9613   28.5645   -0.8484 O.2       5 UNK        -0.5220 
     39 N          28.3209   29.7424   -2.2248 N.am      6 UNK        -0.4450 
     40 CA         27.9226   31.0773   -1.7704 C.3       6 UNK         0.0367 
     41 CB         28.3679   32.1198   -2.8087 C.3       6 UNK        -0.1929 
     42 C          28.4853   31.4284   -0.3794 C.2       6 UNK         0.5070 
     43 O          27.8984   32.2599    0.3137 O.2       6 UNK        -0.5237 
     44 N          29.6081   30.8042   -0.0008 N.am      7 UNK        -0.4739 
     45 CA         30.2486   30.9619    1.3013 C.3       7 UNK         0.0276 
     46 CB         31.7685   30.8147    1.1305 C.3       7 UNK        -0.1927 
     47 C          29.7272   29.9108    2.2901 C.2       7 UNK         0.5013 
     48 O          29.4942   28.7618    1.9038 O.2       7 UNK        -0.5193 
     49 N          29.6032   30.3222    3.5567 N.am      8 UNK        -0.4253 
     50 CA         29.3773   29.4448    4.7056 C.3       8 UNK         0.0242 
     51 CB         28.6734   30.2518    5.8104 C.3       8 UNK        -0.2000 
     52 C          30.7142   28.8766    5.2103 C.2       8 UNK         0.4948 
     53 O          31.7771   29.3399    4.7901 O.2       8 UNK        -0.5275 
     54 N          30.6441   27.9084    6.1343 N.am      9 UNK        -0.4246 
     55 CA         31.7674   27.1422    6.6974 C.3       9 UNK         0.0261 
     56 CB         31.1986   25.9078    7.4242 C.3       9 UNK        -0.1959 
     57 C          32.7341   27.9461    7.6010 C.2       9 UNK         0.5033 
     58 O          33.1628   27.4438    8.6417 O.2       9 UNK        -0.5390 
     59 N          33.0646   29.1766    7.1979 N.am      10 UNK        -0.4215 
     60 CA         34.0025   30.0710    7.8766 C.3       10 UNK         0.0240 
     61 CB         33.6343   31.5249    7.5381 C.3       10 UNK        -0.1982 
     62 C          35.4681   29.7895    7.5033 C.2       10 UNK         0.4970 
     63 O          36.3570   30.1265    8.2867 O.2       10 UNK        -0.4916 
     64 N          35.6996   29.2101    6.3173 N.am      11 UNK        -0.4279 
     65 CA         37.0300   28.8580    5.8037 C.3       11 UNK         0.1003 
     66 C          37.6813   27.6491    6.5350 C.2       11 UNK         0.5709 
     67 N          38.9957   27.5021    6.4333 N.am      11 UNK        -0.7358 
     68 O          37.0137   26.8364    7.1727 O.2       11 UNK        -0.4999 
     69 C69        37.0237   28.7114    4.2570 C.3       12 UNK        -0.0954 
     70 S70        36.0882   27.2847    3.6016 S.3       12 UNK        -0.2268 
     71 C71        34.4960   28.0497    3.1697 C.3       12 UNK         0.0203 
     72 H72        28.3119   21.8526   -0.3282 H         1 UNK         0.0888 
     73 H73        27.8586   21.4467    1.3316 H         1 UNK         0.0888 
     74 H74        26.6282   21.9945    0.1890 H         1 UNK         0.0888 
     75 H75        28.6591   23.0434    2.7121 H         1 UNK         0.3017 
     76 H76        29.3221   25.6949    1.9141 H         1 UNK         0.0873 
     77 H77        28.8290   24.8272    4.8049 H         1 UNK         0.0745 
     78 H78        29.8548   26.1026    4.2179 H         1 UNK         0.0745 
     79 H79        30.9960   23.4356    1.7767 H         1 UNK         0.0705 
     80 H80        32.5138   23.1253    2.5540 H         1 UNK         0.0705 
     81 H81        33.2014   25.7449    3.8320 H         1 UNK         0.1334 
     82 H82        33.9841   28.3323    0.5051 H         1 UNK         0.1417 
     83 H83        31.5886   24.8220   -0.0334 H         1 UNK         0.1562 
     84 H84        32.4855   26.0398   -1.9839 H         1 UNK         0.0748 
     85 H85        33.5090   27.4328   -1.7609 H         1 UNK         0.0748 
     86 H86        29.5533   27.0257   -0.2460 H         1 UNK         0.0940 
     87 H87        30.0741   25.9434   -1.5092 H         1 UNK         0.0940 
     88 H88        28.8347   27.4215   -3.2077 H         1 UNK         0.0703 
     89 H89        27.5886   25.6136   -1.2895 H         1 UNK         0.3081 
     90 H90        24.7064   25.0432   -3.3573 H         1 UNK         0.0719 
     91 H91        26.4704   23.4347   -4.0134 H         1 UNK         0.0809 
     92 H92        27.0376   23.3210   -2.3536 H         1 UNK         0.0809 
     93 H93        25.4337   22.7313   -2.7823 H         1 UNK         0.0809 
     94 H94        25.8533   24.8034   -0.5950 H         1 UNK         0.2990 
     95 H95        22.7199   25.8760    0.8151 H         1 UNK         0.0690 
     96 H96        23.2828   23.9376    2.2435 H         1 UNK         0.0788 
     97 H97        24.4737   23.3724    1.0741 H         1 UNK         0.0788 
     98 H98        22.7635   23.3783    0.6618 H         1 UNK         0.0788 
     99 H99        25.3461   25.5145    1.9329 H         1 UNK         0.2993 
    100 H100       26.3738   28.8702    1.7365 H         1 UNK         0.0949 
    101 H101       24.7347   29.0687    3.5922 H         1 UNK         0.0767 
    102 H102       25.2440   27.5206    4.2441 H         1 UNK         0.0767 
    103 H103       26.3646   28.8816    4.2097 H         1 UNK         0.0767 
    104 H104       28.0799   27.5397    1.9021 H         1 UNK         0.3013 
    105 H105       29.0636   29.6942   -2.9084 H         1 UNK         0.3121 
    106 H106       26.8328   31.1064   -1.7013 H         1 UNK         0.0774 
    107 H107       28.0618   33.1230   -2.5086 H         1 UNK         0.0815 
    108 H108       29.4518   32.1332   -2.9296 H         1 UNK         0.0815 
    109 H109       27.9217   31.9252   -3.7841 H         1 UNK         0.0815 
    110 H110       29.9865   30.0823   -0.5986 H         1 UNK         0.2987 
    111 H111       30.0411   31.9601    1.6938 H         1 UNK         0.0949 
    112 H112       32.2827   30.9051    2.0887 H         1 UNK         0.0806 
    113 H113       32.1712   31.5818    0.4691 H         1 UNK         0.0806 
    114 H114       32.0286   29.8421    0.7138 H         1 UNK         0.0806 
    115 H115       29.8699   31.2705    3.7779 H         1 UNK         0.3010 
    116 H116       28.7403   28.6103    4.4073 H         1 UNK         0.0829 
    117 H117       29.3027   31.0609    6.1840 H         1 UNK         0.0813 
    118 H118       27.7446   30.6928    5.4477 H         1 UNK         0.0813 
    119 H119       28.4152   29.6206    6.6615 H         1 UNK         0.0813 
    120 H120       29.7301   27.6432    6.4716 H         1 UNK         0.3038 
    121 H121       32.3642   26.7818    5.8577 H         1 UNK         0.0769 
    122 H122       31.9977   25.2370    7.7428 H         1 UNK         0.0811 
    123 H123       30.5374   25.3288    6.7813 H         1 UNK         0.0811 
    124 H124       30.6348   26.1903    8.3141 H         1 UNK         0.0811 
    125 H125       32.6660   29.4903    6.3126 H         1 UNK         0.3204 
    126 H126       33.9041   29.9368    8.9560 H         1 UNK         0.0748 
    127 H127       34.3011   32.2253    8.0432 H         1 UNK         0.0771 
    128 H128       33.7040   31.7209    6.4672 H         1 UNK         0.0771 
    129 H129       32.6183   31.7600    7.8559 H         1 UNK         0.0771 
    130 H130       34.9153   28.9271    5.7527 H         1 UNK         0.2980 
    131 H131       37.6712   29.7140    6.0243 H         1 UNK         0.0545 
    132 H132       39.5556   28.1548    5.9076 H         1 UNK         0.3459 
    133 H133       39.4367   26.7206    6.8922 H         1 UNK         0.3459 
    134 H134       36.6473   29.6290    3.8026 H         1 UNK         0.0616 
    135 H135       38.0488   28.6183    3.8949 H         1 UNK         0.0616 
    136 H136       33.9469   28.2527    4.0874 H         1 UNK         0.0634 
    137 H137       34.6643   29.0126    2.6843 H         1 UNK         0.0634 
@<TRIPOS>BOND
     1    1    2 1    
     2    1   72 1    
     3    1   73 1    
     4    1   74 1    
     5    2    3 2    
     6    2    4 am   BACKBONE|DICT|INTERRES
     7    4    5 1    
     8    4   75 1    
     9    5    6 1    
    10    5   35 1    
    11    5   76 1    
    12    6    7 1    
    13    6   77 1    
    14    6   78 1    
    15    7    8 1    
    16    8    9 1    
    17    8   79 1    
    18    8   80 1    
    19    9   10 ar   
    20    9   14 ar   
    21   10   11 ar   
    22   10   81 1    
    23   11   12 ar   
    24   11   71 1    
    25   12   13 ar   
    26   12   82 1    
    27   13   14 ar   
    28   13   15 1    
    29   14   83 1    
    30   15   16 1    
    31   15   84 1    
    32   15   85 1    
    33   16   17 1    
    34   17   18 1    
    35   17   86 1    
    36   17   87 1    
    37   18   19 1    
    38   18   37 1    
    39   18   88 1    
    40   19   20 am   BACKBONE|DICT|INTERRES
    41   19   89 1    
    42   20   21 2    
    43   20   22 1    
    44   22   23 1    
    45   22   24 1    
    46   22   90 1    
    47   23   91 1    
    48   23   92 1    
    49   23   93 1    
    50   24   25 am   BACKBONE|DICT|INTERRES
    51   24   94 1    
    52   25   26 2    
    53   25   27 1    
    54   27   28 1    
    55   27   29 1    
    56   27   95 1    
    57   28   96 1    
    58   28   97 1    
    59   28   98 1    
    60   29   30 am   BACKBONE|DICT|INTERRES
    61   29   99 1    
    62   30   31 2    
    63   30   32 1    
    64   32   33 1    
    65   32   34 1    
    66   32  100 1    
    67   33  101 1    
    68   33  102 1    
    69   33  103 1    
    70   34   35 am   BACKBONE|DICT|INTERRES
    71   34  104 1    
    72   35   36 2    
    73   37   38 2    
    74   37   39 am   BACKBONE|DICT|INTERRES
    75   39   40 1    
    76   39  105 1    
    77   40   41 1    
    78   40   42 1    
    79   40  106 1    
    80   41  107 1    
    81   41  108 1    
    82   41  109 1    
    83   42   43 2    
    84   42   44 am   BACKBONE|DICT|INTERRES
    85   44   45 1    
    86   44  110 1    
    87   45   46 1    
    88   45   47 1    
    89   45  111 1    
    90   46  112 1    
    91   46  113 1    
    92   46  114 1    
    93   47   48 2    
    94   47   49 am   BACKBONE|DICT|INTERRES
    95   49   50 1    
    96   49  115 1    
    97   50   51 1    
    98   50   52 1    
    99   50  116 1    
   100   51  117 1    
   101   51  118 1    
   102   51  119 1    
   103   52   53 2    
   104   52   54 am   BACKBONE|DICT|INTERRES
   105   54   55 1    
   106   54  120 1    
   107   55   56 1    
   108   55   57 1    
   109   55  121 1    
   110   56  122 1    
   111   56  123 1    
   112   56  124 1    
   113   57   58 2    
   114   57   59 am   BACKBONE|DICT|INTERRES
   115   59   60 1    
   116   59  125 1    
   117   60   61 1    
   118   60   62 1    
   119   60  126 1    
   120   61  127 1    
   121   61  128 1    
   122   61  129 1    
   123   62   63 2    
   124   62   64 am   BACKBONE|DICT|INTERRES
   125   64   65 1    
   126   64  130 1    
   127   65   66 1    
   128   65   69 1    
   129   65  131 1    
   130   66   67 am   BACKBONE|DICT|INTERRES
   131   66   68 2    
   132   67  132 1    
   133   67  133 1    
   134   69   70 1    
   135   69  134 1    
   136   69  135 1    
   137   70   71 1    
   138   71  136 1    
   139   71  137 1    
@<TRIPOS>SUBSTRUCTURE
     1 UNK         1 GROUP             0       ****    0 ROOT    
