@<TRIPOS>MOLECULE
3R136
137   139    1
SMALL
USER_CHARGES


@<TRIPOS>ATOM
      1 CA         34.2141   23.4250   -3.1318 C.3       0 UNK        -0.1979 
      2 C          33.6581   24.2443   -1.9765 C.2       0 UNK         0.4864 
      3 O          34.3456   25.1341   -1.4755 O.2       0 UNK        -0.5359 
      4 N          32.4220   23.9450   -1.5509 N.am      1 UNK        -0.4318 
      5 CA         31.7077   24.6299   -0.4668 C.3       1 UNK         0.0824 
      6 C6         30.4328   23.8430   -0.0657 C.3       12 UNK        -0.0944 
      7 S7         29.5983   24.4988    1.4151 S.3       12 UNK        -0.2672 
      8 C8         30.3894   23.5338    2.7374 C.3       12 UNK         0.0333 
      9 C9         30.0478   24.1376    4.0885 C.ar      12 UNK        -0.0807 
     10 C10        30.8545   25.1407    4.6288 C.ar      12 UNK        -0.0894 
     11 C11        30.4997   25.7764    5.8206 C.ar      12 UNK        -0.0804 
     12 C12        29.3443   25.3749    6.4979 C.ar      12 UNK        -0.0824 
     13 C13        28.5395   24.3557    5.9765 C.ar      12 UNK        -0.0762 
     14 C14        28.8995   23.7368    4.7747 C.ar      12 UNK        -0.0782 
     15 C15        27.2632   23.9366    6.6893 C.3       12 UNK         0.0230 
     16 S16        25.7851   24.3448    5.7066 S.3       12 UNK        -0.2608 
     17 C17        25.7395   26.1676    5.8212 C.3       12 UNK        -0.0989 
     18 CA         26.4058   26.9042    4.6267 C.3       5 UNK         0.0716 
     19 N          26.0064   26.3311    3.3309 N.am      5 UNK        -0.4135 
     20 C          26.2755   26.7947    2.1016 C.2       4 UNK         0.5031 
     21 O          26.7339   27.9146    1.8776 O.2       4 UNK        -0.5229 
     22 CA         26.0007   25.8110    0.9478 C.3       4 UNK         0.0329 
     23 CB         24.5132   25.3977    0.8878 C.3       4 UNK        -0.2001 
     24 N          26.4754   26.2734   -0.3671 N.am      4 UNK        -0.4303 
     25 C          25.9959   27.2852   -1.1068 C.2       3 UNK         0.5044 
     26 O          25.0752   28.0257   -0.7549 O.2       3 UNK        -0.5152 
     27 CA         26.5938   27.4366   -2.5216 C.3       3 UNK         0.0319 
     28 CB         26.2069   28.7683   -3.2043 C.3       3 UNK        -0.2001 
     29 N          28.0421   27.1955   -2.6206 N.am      3 UNK        -0.4354 
     30 C          29.0260   27.9592   -2.1203 C.2       2 UNK         0.4964 
     31 O          28.8446   28.9104   -1.3628 O.2       2 UNK        -0.5047 
     32 CA         30.4467   27.6091   -2.6024 C.3       2 UNK         0.0288 
     33 CB         31.4601   28.7627   -2.4236 C.3       2 UNK        -0.2113 
     34 N          30.9195   26.3424   -2.0309 N.am      2 UNK        -0.4145 
     35 C          31.4141   26.1093   -0.8044 C.2       1 UNK         0.5006 
     36 O          31.6772   26.9787    0.0294 O.2       1 UNK        -0.5103 
     37 C          26.1914   28.4251    4.7872 C.2       5 UNK         0.5055 
     38 O          27.0035   29.0818    5.4394 O.2       5 UNK        -0.5220 
     39 N          25.1037   28.9523    4.2082 N.am      6 UNK        -0.4450 
     40 CA         24.7320   30.3675    4.2645 C.3       6 UNK         0.0367 
     41 CB         23.2718   30.5203    3.8078 C.3       6 UNK        -0.1929 
     42 C          25.6470   31.2935    3.4409 C.2       6 UNK         0.5070 
     43 O          25.7581   32.4711    3.7840 O.2       6 UNK        -0.5237 
     44 N          26.2615   30.7694    2.3725 N.am      7 UNK        -0.4739 
     45 CA         27.1082   31.5251    1.4413 C.3       7 UNK         0.0276 
     46 CB         26.4791   31.4351    0.0403 C.3       7 UNK        -0.1927 
     47 C          28.5611   31.0181    1.4032 C.2       7 UNK         0.5013 
     48 O          29.3926   31.6665    0.7654 O.2       7 UNK        -0.5193 
     49 N          28.8224   29.8738    2.0507 N.am      8 UNK        -0.4253 
     50 CA         30.0339   29.0611    1.9585 C.3       8 UNK         0.0242 
     51 CB         29.9460   27.9061    2.9629 C.3       8 UNK        -0.2000 
     52 C          31.3620   29.8062    2.1489 C.2       8 UNK         0.4948 
     53 O          31.4894   30.6325    3.0558 O.2       8 UNK        -0.5275 
     54 N          32.3394   29.4334    1.3172 N.am      9 UNK        -0.4246 
     55 CA         33.7089   29.9438    1.3426 C.3       9 UNK         0.0261 
     56 CB         34.1833   30.1614   -0.1034 C.3       9 UNK        -0.1959 
     57 C          34.6681   28.9911    2.0726 C.2       9 UNK         0.5033 
     58 O          35.6916   29.4519    2.5798 O.2       9 UNK        -0.5390 
     59 N          34.3408   27.6893    2.1147 N.am      10 UNK        -0.4215 
     60 CA         35.2080   26.6187    2.6252 C.3       10 UNK         0.0240 
     61 CB         34.5607   25.2542    2.3417 C.3       10 UNK        -0.1982 
     62 C          35.6123   26.7352    4.1072 C.2       10 UNK         0.4970 
     63 O          36.6675   26.2157    4.4735 O.2       10 UNK        -0.4916 
     64 N          34.7957   27.4148    4.9223 N.am      11 UNK        -0.4279 
     65 CA         35.1110   27.7319    6.3262 C.3       11 UNK         0.1003 
     66 C          36.0527   28.9613    6.5001 C.2       11 UNK         0.5709 
     67 N          36.4215   29.6875    5.4501 N.am      11 UNK        -0.7358 
     68 O          36.4718   29.2568    7.6169 O.2       11 UNK        -0.4999 
     69 C69        33.8356   27.8651    7.2014 C.3       12 UNK        -0.0954 
     70 S70        32.8259   26.3448    7.1997 S.3       12 UNK        -0.2268 
     71 C71        31.3432   26.9321    6.3325 C.3       12 UNK         0.0203 
     72 H72        35.1292   22.9188   -2.8256 H         1 UNK         0.0888 
     73 H73        33.5075   22.6695   -3.4750 H         1 UNK         0.0888 
     74 H74        34.4498   24.0760   -3.9732 H         1 UNK         0.0888 
     75 H75        31.9220   23.1898   -1.9987 H         1 UNK         0.3017 
     76 H76        32.3735   24.6311    0.3970 H         1 UNK         0.0873 
     77 H77        29.7115   23.8374   -0.8848 H         1 UNK         0.0745 
     78 H78        30.6812   22.7961    0.1172 H         1 UNK         0.0745 
     79 H79        30.0567   22.4960    2.6846 H         1 UNK         0.0705 
     80 H80        31.4708   23.5253    2.5930 H         1 UNK         0.0705 
     81 H81        31.7406   25.4594    4.1007 H         1 UNK         0.1334 
     82 H82        29.0624   25.8694    7.4175 H         1 UNK         0.1417 
     83 H83        28.2646   22.9673    4.3566 H         1 UNK         0.1562 
     84 H84        27.1883   24.3988    7.6749 H         1 UNK         0.0748 
     85 H85        27.2881   22.8591    6.8577 H         1 UNK         0.0748 
     86 H86        26.1995   26.4772    6.7620 H         1 UNK         0.0940 
     87 H87        24.6875   26.4501    5.8997 H         1 UNK         0.0940 
     88 H88        27.4828   26.7410    4.6921 H         1 UNK         0.0703 
     89 H89        25.6189   25.4013    3.4053 H         1 UNK         0.3081 
     90 H90        26.5828   24.9144    1.1652 H         1 UNK         0.0719 
     91 H91        23.8541   26.2605    0.7861 H         1 UNK         0.0809 
     92 H92        24.3215   24.7309    0.0471 H         1 UNK         0.0809 
     93 H93        24.2092   24.8656    1.7896 H         1 UNK         0.0809 
     94 H94        27.2629   25.7644   -0.7414 H         1 UNK         0.2990 
     95 H95        26.1295   26.6418   -3.1075 H         1 UNK         0.0690 
     96 H96        26.5907   28.8186   -4.2232 H         1 UNK         0.0788 
     97 H97        26.5903   29.6307   -2.6587 H         1 UNK         0.0788 
     98 H98        25.1235   28.8792   -3.2639 H         1 UNK         0.0788 
     99 H99        28.3038   26.4219   -3.2161 H         1 UNK         0.2993 
    100 H100       30.3725   27.4366   -3.6776 H         1 UNK         0.0949 
    101 H101       32.4630   28.4653   -2.7298 H         1 UNK         0.0767 
    102 H102       31.1737   29.6209   -3.0323 H         1 UNK         0.0767 
    103 H103       31.5109   29.1132   -1.3936 H         1 UNK         0.0767 
    104 H104       30.7948   25.5359   -2.6261 H         1 UNK         0.3013 
    105 H105       24.5026   28.3418    3.6738 H         1 UNK         0.3121 
    106 H106       24.7969   30.6904    5.3060 H         1 UNK         0.0774 
    107 H107       23.1360   30.1965    2.7750 H         1 UNK         0.0815 
    108 H108       22.9519   31.5617    3.8668 H         1 UNK         0.0815 
    109 H109       22.5953   29.9401    4.4356 H         1 UNK         0.0815 
    110 H110       26.1440   29.7798    2.1685 H         1 UNK         0.2987 
    111 H111       27.1533   32.5780    1.7274 H         1 UNK         0.0949 
    112 H112       25.4659   31.8366    0.0311 H         1 UNK         0.0806 
    113 H113       26.4355   30.4022   -0.3073 H         1 UNK         0.0806 
    114 H114       27.0603   31.9993   -0.6902 H         1 UNK         0.0806 
    115 H115       28.0306   29.4044    2.4704 H         1 UNK         0.3010 
    116 H116       30.0188   28.6380    0.9548 H         1 UNK         0.0829 
    117 H117       30.8585   27.3117    2.9362 H         1 UNK         0.0813 
    118 H118       29.1273   27.2289    2.7288 H         1 UNK         0.0813 
    119 H119       29.8072   28.2663    3.9827 H         1 UNK         0.0813 
    120 H120       32.1331   28.6916    0.6501 H         1 UNK         0.3038 
    121 H121       33.7383   30.9055    1.8595 H         1 UNK         0.0769 
    122 H122       34.1862   29.2309   -0.6732 H         1 UNK         0.0811 
    123 H123       35.1979   30.5619   -0.1258 H         1 UNK         0.0811 
    124 H124       33.5433   30.8721   -0.6268 H         1 UNK         0.0811 
    125 H125       33.4864   27.3995    1.6587 H         1 UNK         0.3204 
    126 H126       36.1367   26.6671    2.0526 H         1 UNK         0.0748 
    127 H127       35.1525   24.4403    2.7636 H         1 UNK         0.0771 
    128 H128       33.5591   25.1822    2.7626 H         1 UNK         0.0771 
    129 H129       34.4934   25.0728    1.2698 H         1 UNK         0.0771 
    130 H130       33.9603   27.8307    4.5420 H         1 UNK         0.2980 
    131 H131       35.6743   26.8905    6.7343 H         1 UNK         0.0545 
    132 H132       37.0360   30.4726    5.5937 H         1 UNK         0.3459 
    133 H133       36.1075   29.4651    4.5109 H         1 UNK         0.3459 
    134 H134       33.2359   28.7175    6.8775 H         1 UNK         0.0616 
    135 H135       34.1054   28.0654    8.2399 H         1 UNK         0.0616 
    136 H136       31.6406   27.5583    5.4904 H         1 UNK         0.0634 
    137 H137       30.7626   27.5695    7.0012 H         1 UNK         0.0634 
@<TRIPOS>BOND
     1    1    2 1    
     2    1   72 1    
     3    1   73 1    
     4    1   74 1    
     5    2    3 2    
     6    2    4 am   BACKBONE|DICT|INTERRES
     7    4    5 1    
     8    4   75 1    
     9    5    6 1    
    10    5   35 1    
    11    5   76 1    
    12    6    7 1    
    13    6   77 1    
    14    6   78 1    
    15    7    8 1    
    16    8    9 1    
    17    8   79 1    
    18    8   80 1    
    19    9   10 ar   
    20    9   14 ar   
    21   10   11 ar   
    22   10   81 1    
    23   11   12 ar   
    24   11   71 1    
    25   12   13 ar   
    26   12   82 1    
    27   13   14 ar   
    28   13   15 1    
    29   14   83 1    
    30   15   16 1    
    31   15   84 1    
    32   15   85 1    
    33   16   17 1    
    34   17   18 1    
    35   17   86 1    
    36   17   87 1    
    37   18   19 1    
    38   18   37 1    
    39   18   88 1    
    40   19   20 am   BACKBONE|DICT|INTERRES
    41   19   89 1    
    42   20   21 2    
    43   20   22 1    
    44   22   23 1    
    45   22   24 1    
    46   22   90 1    
    47   23   91 1    
    48   23   92 1    
    49   23   93 1    
    50   24   25 am   BACKBONE|DICT|INTERRES
    51   24   94 1    
    52   25   26 2    
    53   25   27 1    
    54   27   28 1    
    55   27   29 1    
    56   27   95 1    
    57   28   96 1    
    58   28   97 1    
    59   28   98 1    
    60   29   30 am   BACKBONE|DICT|INTERRES
    61   29   99 1    
    62   30   31 2    
    63   30   32 1    
    64   32   33 1    
    65   32   34 1    
    66   32  100 1    
    67   33  101 1    
    68   33  102 1    
    69   33  103 1    
    70   34   35 am   BACKBONE|DICT|INTERRES
    71   34  104 1    
    72   35   36 2    
    73   37   38 2    
    74   37   39 am   BACKBONE|DICT|INTERRES
    75   39   40 1    
    76   39  105 1    
    77   40   41 1    
    78   40   42 1    
    79   40  106 1    
    80   41  107 1    
    81   41  108 1    
    82   41  109 1    
    83   42   43 2    
    84   42   44 am   BACKBONE|DICT|INTERRES
    85   44   45 1    
    86   44  110 1    
    87   45   46 1    
    88   45   47 1    
    89   45  111 1    
    90   46  112 1    
    91   46  113 1    
    92   46  114 1    
    93   47   48 2    
    94   47   49 am   BACKBONE|DICT|INTERRES
    95   49   50 1    
    96   49  115 1    
    97   50   51 1    
    98   50   52 1    
    99   50  116 1    
   100   51  117 1    
   101   51  118 1    
   102   51  119 1    
   103   52   53 2    
   104   52   54 am   BACKBONE|DICT|INTERRES
   105   54   55 1    
   106   54  120 1    
   107   55   56 1    
   108   55   57 1    
   109   55  121 1    
   110   56  122 1    
   111   56  123 1    
   112   56  124 1    
   113   57   58 2    
   114   57   59 am   BACKBONE|DICT|INTERRES
   115   59   60 1    
   116   59  125 1    
   117   60   61 1    
   118   60   62 1    
   119   60  126 1    
   120   61  127 1    
   121   61  128 1    
   122   61  129 1    
   123   62   63 2    
   124   62   64 am   BACKBONE|DICT|INTERRES
   125   64   65 1    
   126   64  130 1    
   127   65   66 1    
   128   65   69 1    
   129   65  131 1    
   130   66   67 am   BACKBONE|DICT|INTERRES
   131   66   68 2    
   132   67  132 1    
   133   67  133 1    
   134   69   70 1    
   135   69  134 1    
   136   69  135 1    
   137   70   71 1    
   138   71  136 1    
   139   71  137 1    
@<TRIPOS>SUBSTRUCTURE
     1 UNK         1 GROUP             0       ****    0 ROOT    
