@<TRIPOS>MOLECULE
3R136
137   139    1
SMALL
USER_CHARGES


@<TRIPOS>ATOM
      1 CA         26.6746   21.8667    2.4040 C.3       0 UNK        -0.1979 
      2 C          27.1334   22.3890    1.0516 C.2       0 UNK         0.4864 
      3 O          26.8643   23.5487    0.7362 O.2       0 UNK        -0.5359 
      4 N          27.8149   21.5413    0.2627 N.am      1 UNK        -0.4318 
      5 CA         28.4266   21.8158   -1.0522 C.3       1 UNK         0.0824 
      6 C6         29.8969   22.3319   -0.9778 C.3       12 UNK        -0.0944 
      7 S7         30.2157   23.7234    0.1643 S.3       12 UNK        -0.2672 
      8 C8         31.1050   22.8418    1.4860 C.3       12 UNK         0.0333 
      9 C9         31.3881   23.7509    2.6696 C.ar      12 UNK        -0.0807 
     10 C10        32.5802   24.4781    2.7358 C.ar      12 UNK        -0.0894 
     11 C11        32.8455   25.3122    3.8274 C.ar      12 UNK        -0.0804 
     12 C12        31.8880   25.4365    4.8401 C.ar      12 UNK        -0.0824 
     13 C13        30.6827   24.7302    4.7748 C.ar      12 UNK        -0.0762 
     14 C14        30.4556   23.8611    3.7036 C.ar      12 UNK        -0.0782 
     15 C15        29.6281   24.9190    5.8602 C.3       12 UNK         0.0230 
     16 S16        27.9758   25.3308    5.1976 S.3       12 UNK        -0.2608 
     17 C17        28.3221   26.7659    4.1195 C.3       12 UNK        -0.0989 
     18 CA         28.2184   26.3871    2.6160 C.3       5 UNK         0.0716 
     19 N          26.9049   25.9112    2.1840 N.am      5 UNK        -0.4135 
     20 C          25.7129   26.5074    2.3133 C.2       4 UNK         0.5031 
     21 O          25.5061   27.5641    2.9125 O.2       4 UNK        -0.5229 
     22 CA         24.5618   25.7747    1.6035 C.3       4 UNK         0.0329 
     23 CB         23.1628   26.3500    1.9160 C.3       4 UNK        -0.2001 
     24 N          24.8292   25.7063    0.1621 N.am      4 UNK        -0.4303 
     25 C          24.8544   26.7222   -0.7155 C.2       3 UNK         0.5044 
     26 O          24.4982   27.8717   -0.4545 O.2       3 UNK        -0.5152 
     27 CA         25.4013   26.4307   -2.1260 C.3       3 UNK         0.0319 
     28 CB         26.7293   27.1743   -2.3391 C.3       3 UNK        -0.2001 
     29 N          25.6226   25.0102   -2.4024 N.am      3 UNK        -0.4354 
     30 C          24.6763   24.1062   -2.6753 C.2       2 UNK         0.4964 
     31 O          23.4747   24.3714   -2.7122 O.2       2 UNK        -0.5047 
     32 CA         25.1335   22.6595   -2.9461 C.3       2 UNK         0.0288 
     33 CB         25.4440   22.4544   -4.4420 C.3       2 UNK        -0.2113 
     34 N          26.2379   22.1740   -2.1000 N.am      2 UNK        -0.4145 
     35 C          27.5180   22.5803   -2.0454 C.2       1 UNK         0.5006 
     36 O          27.9714   23.5055   -2.7227 O.2       1 UNK        -0.5103 
     37 C          28.7065   27.4924    1.6670 C.2       5 UNK         0.5055 
     38 O          28.4657   28.6769    1.9087 O.2       5 UNK        -0.5220 
     39 N          29.3719   27.0727    0.5810 N.am      6 UNK        -0.4450 
     40 CA         30.0034   27.9508   -0.4039 C.3       6 UNK         0.0367 
     41 CB         30.5507   27.1046   -1.5672 C.3       6 UNK        -0.1929 
     42 C          31.1279   28.7748    0.2443 C.2       6 UNK         0.5070 
     43 O          32.0673   28.1877    0.7813 O.2       6 UNK        -0.5237 
     44 N          30.9969   30.1078    0.1834 N.am      7 UNK        -0.4739 
     45 CA         31.8850   31.1077    0.7913 C.3       7 UNK         0.0276 
     46 CB         33.2804   31.0882    0.1298 C.3       7 UNK        -0.1927 
     47 C          31.9504   31.0012    2.3287 C.2       7 UNK         0.5013 
     48 O          33.0319   31.1264    2.9058 O.2       7 UNK        -0.5193 
     49 N          30.7858   30.8133    2.9718 N.am      8 UNK        -0.4253 
     50 CA         30.6115   30.6674    4.4260 C.3       8 UNK         0.0242 
     51 CB         29.1129   30.6241    4.7644 C.3       8 UNK        -0.2000 
     52 C          31.3036   31.7439    5.2843 C.2       8 UNK         0.4948 
     53 O          31.7994   31.4260    6.3651 O.2       8 UNK        -0.5275 
     54 N          31.3591   32.9829    4.7748 N.am      9 UNK        -0.4246 
     55 CA         32.0614   34.1122    5.3900 C.3       9 UNK         0.0261 
     56 CB         31.6931   35.4039    4.6420 C.3       9 UNK        -0.1959 
     57 C          33.5924   33.9422    5.4470 C.2       9 UNK         0.5033 
     58 O          34.2183   34.5102    6.3434 O.2       9 UNK        -0.5390 
     59 N          34.1684   33.1765    4.5088 N.am      10 UNK        -0.4215 
     60 CA         35.5846   32.8080    4.5000 C.3       10 UNK         0.0240 
     61 CB         36.0691   32.6259    3.0516 C.3       10 UNK        -0.1982 
     62 C          35.8267   31.5325    5.3211 C.2       10 UNK         0.4970 
     63 O          36.8497   31.4476    6.0019 O.2       10 UNK        -0.4916 
     64 N          34.8905   30.5746    5.2511 N.am      11 UNK        -0.4279 
     65 CA         34.9067   29.3315    6.0390 C.3       11 UNK         0.1003 
     66 C          34.8010   29.5690    7.5711 C.2       11 UNK         0.5709 
     67 N          33.9342   30.4640    8.0284 N.am      11 UNK        -0.7358 
     68 O          35.5131   28.9368    8.3476 O.2       11 UNK        -0.4999 
     69 C69        33.8191   28.3290    5.5770 C.3       12 UNK        -0.0954 
     70 S70        33.9851   27.8605    3.8207 S.3       12 UNK        -0.2268 
     71 C71        34.1770   26.0515    3.9164 C.3       12 UNK         0.0203 
     72 H72        27.0442   20.8606    2.6009 H         1 UNK         0.0888 
     73 H73        27.0333   22.5211    3.1982 H         1 UNK         0.0888 
     74 H74        25.5861   21.8454    2.4468 H         1 UNK         0.0888 
     75 H75        27.9650   20.6008    0.6006 H         1 UNK         0.3017 
     76 H76        28.5001   20.8301   -1.5151 H         1 UNK         0.0873 
     77 H77        30.5373   21.4988   -0.6852 H         1 UNK         0.0745 
     78 H78        30.2630   22.6154   -1.9662 H         1 UNK         0.0745 
     79 H79        30.5133   21.9842    1.8104 H         1 UNK         0.0705 
     80 H80        32.0390   22.4409    1.0890 H         1 UNK         0.0705 
     81 H81        33.3054   24.3863    1.9387 H         1 UNK         0.1334 
     82 H82        32.0773   26.0897    5.6790 H         1 UNK         0.1417 
     83 H83        29.5303   23.3034    3.6536 H         1 UNK         0.1562 
     84 H84        29.9252   25.7057    6.5556 H         1 UNK         0.0748 
     85 H85        29.5550   24.0019    6.4460 H         1 UNK         0.0748 
     86 H86        29.3157   27.1571    4.3458 H         1 UNK         0.0940 
     87 H87        27.6271   27.5670    4.3725 H         1 UNK         0.0940 
     88 H88        28.8833   25.5415    2.4537 H         1 UNK         0.0703 
     89 H89        26.9273   25.0491    1.6374 H         1 UNK         0.3081 
     90 H90        24.5736   24.7455    1.9665 H         1 UNK         0.0719 
     91 H91        22.9436   26.2670    2.9810 H         1 UNK         0.0809 
     92 H92        23.0803   27.4052    1.6552 H         1 UNK         0.0809 
     93 H93        22.3831   25.8093    1.3799 H         1 UNK         0.0809 
     94 H94        25.2091   24.8226   -0.1549 H         1 UNK         0.2990 
     95 H95        24.6729   26.8118   -2.8447 H         1 UNK         0.0690 
     96 H96        27.1218   27.0146   -3.3436 H         1 UNK         0.0788 
     97 H97        27.4814   26.8406   -1.6251 H         1 UNK         0.0788 
     98 H98        26.6062   28.2499   -2.2055 H         1 UNK         0.0788 
     99 H99        26.5872   24.6857   -2.4236 H         1 UNK         0.2993 
    100 H100       24.2808   22.0232   -2.7025 H         1 UNK         0.0949 
    101 H101       26.2820   23.0684   -4.7736 H         1 UNK         0.0767 
    102 H102       25.6847   21.4134   -4.6578 H         1 UNK         0.0767 
    103 H103       24.5842   22.7222   -5.0578 H         1 UNK         0.0767 
    104 H104       25.9783   21.4363   -1.4595 H         1 UNK         0.3013 
    105 H105       29.5531   26.0827    0.4732 H         1 UNK         0.3121 
    106 H106       29.2372   28.6231   -0.7955 H         1 UNK         0.0774 
    107 H107       31.3308   26.4189   -1.2332 H         1 UNK         0.0815 
    108 H108       29.7703   26.5094   -2.0405 H         1 UNK         0.0815 
    109 H109       30.9863   27.7409   -2.3384 H         1 UNK         0.0815 
    110 H110       30.1762   30.4802   -0.2752 H         1 UNK         0.2987 
    111 H111       31.4405   32.0814    0.5793 H         1 UNK         0.0949 
    112 H112       33.2089   31.1708   -0.9545 H         1 UNK         0.0806 
    113 H113       33.8886   31.9239    0.4783 H         1 UNK         0.0806 
    114 H114       33.8268   30.1736    0.3630 H         1 UNK         0.0806 
    115 H115       29.9565   30.6706    2.4105 H         1 UNK         0.3010 
    116 H116       31.0454   29.7041    4.6952 H         1 UNK         0.0829 
    117 H117       28.6052   31.5432    4.4694 H         1 UNK         0.0813 
    118 H118       28.9573   30.4944    5.8365 H         1 UNK         0.0813 
    119 H119       28.6137   29.7941    4.2681 H         1 UNK         0.0813 
    120 H120       30.9179   33.1508    3.8824 H         1 UNK         0.3038 
    121 H121       31.7068   34.2007    6.4192 H         1 UNK         0.0769 
    122 H122       30.6188   35.5872    4.6696 H         1 UNK         0.0811 
    123 H123       32.0030   35.3685    3.5968 H         1 UNK         0.0811 
    124 H124       32.1785   36.2691    5.0962 H         1 UNK         0.0811 
    125 H125       33.5795   32.6841    3.8421 H         1 UNK         0.3204 
    126 H126       36.1710   33.6132    4.9481 H         1 UNK         0.0748 
    127 H127       35.5636   31.7992    2.5514 H         1 UNK         0.0771 
    128 H128       35.9023   33.5270    2.4613 H         1 UNK         0.0771 
    129 H129       37.1387   32.4139    3.0251 H         1 UNK         0.0771 
    130 H130       34.1111   30.6935    4.6143 H         1 UNK         0.2980 
    131 H131       35.8765   28.8619    5.8627 H         1 UNK         0.0545 
    132 H132       33.2828   30.9219    7.3953 H         1 UNK         0.3459 
    133 H133       33.8659   30.6242    9.0202 H         1 UNK         0.3459 
    134 H134       32.8246   28.7471    5.7299 H         1 UNK         0.0616 
    135 H135       33.8643   27.4305    6.1939 H         1 UNK         0.0616 
    136 H136       34.6968   25.7704    4.8330 H         1 UNK         0.0634 
    137 H137       34.8309   25.7450    3.0987 H         1 UNK         0.0634 
@<TRIPOS>BOND
     1    1    2 1    
     2    1   72 1    
     3    1   73 1    
     4    1   74 1    
     5    2    3 2    
     6    2    4 am   BACKBONE|DICT|INTERRES
     7    4    5 1    
     8    4   75 1    
     9    5    6 1    
    10    5   35 1    
    11    5   76 1    
    12    6    7 1    
    13    6   77 1    
    14    6   78 1    
    15    7    8 1    
    16    8    9 1    
    17    8   79 1    
    18    8   80 1    
    19    9   10 ar   
    20    9   14 ar   
    21   10   11 ar   
    22   10   81 1    
    23   11   12 ar   
    24   11   71 1    
    25   12   13 ar   
    26   12   82 1    
    27   13   14 ar   
    28   13   15 1    
    29   14   83 1    
    30   15   16 1    
    31   15   84 1    
    32   15   85 1    
    33   16   17 1    
    34   17   18 1    
    35   17   86 1    
    36   17   87 1    
    37   18   19 1    
    38   18   37 1    
    39   18   88 1    
    40   19   20 am   BACKBONE|DICT|INTERRES
    41   19   89 1    
    42   20   21 2    
    43   20   22 1    
    44   22   23 1    
    45   22   24 1    
    46   22   90 1    
    47   23   91 1    
    48   23   92 1    
    49   23   93 1    
    50   24   25 am   BACKBONE|DICT|INTERRES
    51   24   94 1    
    52   25   26 2    
    53   25   27 1    
    54   27   28 1    
    55   27   29 1    
    56   27   95 1    
    57   28   96 1    
    58   28   97 1    
    59   28   98 1    
    60   29   30 am   BACKBONE|DICT|INTERRES
    61   29   99 1    
    62   30   31 2    
    63   30   32 1    
    64   32   33 1    
    65   32   34 1    
    66   32  100 1    
    67   33  101 1    
    68   33  102 1    
    69   33  103 1    
    70   34   35 am   BACKBONE|DICT|INTERRES
    71   34  104 1    
    72   35   36 2    
    73   37   38 2    
    74   37   39 am   BACKBONE|DICT|INTERRES
    75   39   40 1    
    76   39  105 1    
    77   40   41 1    
    78   40   42 1    
    79   40  106 1    
    80   41  107 1    
    81   41  108 1    
    82   41  109 1    
    83   42   43 2    
    84   42   44 am   BACKBONE|DICT|INTERRES
    85   44   45 1    
    86   44  110 1    
    87   45   46 1    
    88   45   47 1    
    89   45  111 1    
    90   46  112 1    
    91   46  113 1    
    92   46  114 1    
    93   47   48 2    
    94   47   49 am   BACKBONE|DICT|INTERRES
    95   49   50 1    
    96   49  115 1    
    97   50   51 1    
    98   50   52 1    
    99   50  116 1    
   100   51  117 1    
   101   51  118 1    
   102   51  119 1    
   103   52   53 2    
   104   52   54 am   BACKBONE|DICT|INTERRES
   105   54   55 1    
   106   54  120 1    
   107   55   56 1    
   108   55   57 1    
   109   55  121 1    
   110   56  122 1    
   111   56  123 1    
   112   56  124 1    
   113   57   58 2    
   114   57   59 am   BACKBONE|DICT|INTERRES
   115   59   60 1    
   116   59  125 1    
   117   60   61 1    
   118   60   62 1    
   119   60  126 1    
   120   61  127 1    
   121   61  128 1    
   122   61  129 1    
   123   62   63 2    
   124   62   64 am   BACKBONE|DICT|INTERRES
   125   64   65 1    
   126   64  130 1    
   127   65   66 1    
   128   65   69 1    
   129   65  131 1    
   130   66   67 am   BACKBONE|DICT|INTERRES
   131   66   68 2    
   132   67  132 1    
   133   67  133 1    
   134   69   70 1    
   135   69  134 1    
   136   69  135 1    
   137   70   71 1    
   138   71  136 1    
   139   71  137 1    
@<TRIPOS>SUBSTRUCTURE
     1 UNK         1 GROUP             0       ****    0 ROOT    
