@<TRIPOS>MOLECULE
3R136
137   139    1
SMALL
USER_CHARGES


@<TRIPOS>ATOM
      1 CA         26.7492   20.9237   -1.0937 C.3       0 UNK        -0.1979 
      2 C          27.9218   21.7942   -1.5196 C.2       0 UNK         0.4864 
      3 O          28.3122   21.7693   -2.6879 O.2       0 UNK        -0.5359 
      4 N          28.4860   22.5642   -0.5826 N.am      1 UNK        -0.4318 
      5 CA         29.5869   23.4978   -0.8216 C.3       1 UNK         0.0824 
      6 C6         30.4541   23.6994    0.4439 C.3       12 UNK        -0.0944 
      7 S7         31.3279   22.1709    0.9165 S.3       12 UNK        -0.2672 
      8 C8         30.4984   21.7361    2.4820 C.3       12 UNK         0.0333 
      9 C9         30.7432   22.7492    3.5970 C.ar      12 UNK        -0.0807 
     10 C10        32.0328   23.2242    3.8646 C.ar      12 UNK        -0.0894 
     11 C11        32.2548   24.1489    4.8887 C.ar      12 UNK        -0.0804 
     12 C12        31.1763   24.5863    5.6609 C.ar      12 UNK        -0.0824 
     13 C13        29.8834   24.1241    5.4045 C.ar      12 UNK        -0.0762 
     14 C14        29.6727   23.1987    4.3777 C.ar      12 UNK        -0.0782 
     15 C15        28.7257   24.6358    6.2466 C.3       12 UNK         0.0230 
     16 S16        28.2069   26.2946    5.7048 S.3       12 UNK        -0.2608 
     17 C17        26.9573   25.9070    4.4323 C.3       12 UNK        -0.0989 
     18 CA         27.5113   25.7714    2.9926 C.3       5 UNK         0.0716 
     19 N          26.4402   25.4374    2.0646 N.am      5 UNK        -0.4135 
     20 C          26.2137   24.2394    1.5224 C.2       4 UNK         0.5031 
     21 O          26.8950   23.2389    1.7569 O.2       4 UNK        -0.5229 
     22 CA         25.0384   24.1245    0.5334 C.3       4 UNK         0.0329 
     23 CB         23.6934   24.0123    1.2764 C.3       4 UNK        -0.2001 
     24 N          25.0066   25.1682   -0.5013 N.am      4 UNK        -0.4303 
     25 C          24.7997   26.4870   -0.3790 C.2       3 UNK         0.5044 
     26 O          24.5503   27.0425    0.6923 O.2       3 UNK        -0.5152 
     27 CA         24.9373   27.3207   -1.6714 C.3       3 UNK         0.0319 
     28 CB         24.6581   28.8180   -1.4427 C.3       3 UNK        -0.2001 
     29 N          26.2701   27.1752   -2.2647 N.am      3 UNK        -0.4354 
     30 C          26.7004   26.1109   -2.9547 C.2       2 UNK         0.4964 
     31 O          25.9796   25.1514   -3.2364 O.2       2 UNK        -0.5047 
     32 CA         28.1878   26.0628   -3.3505 C.3       2 UNK         0.0288 
     33 CB         28.9482   27.3973   -3.1603 C.3       2 UNK        -0.2113 
     34 N          28.8604   24.9627   -2.6480 N.am      2 UNK        -0.4145 
     35 C          28.9884   24.8234   -1.3192 C.2       1 UNK         0.5006 
     36 O          28.6165   25.6629   -0.4986 O.2       1 UNK        -0.5103 
     37 C          28.1729   27.0556    2.4748 C.2       5 UNK         0.5055 
     38 O          27.4724   28.0310    2.1909 O.2       5 UNK        -0.5220 
     39 N          29.5091   27.0514    2.3861 N.am      6 UNK        -0.4450 
     40 CA         30.3218   28.1575    1.8747 C.3       6 UNK         0.0367 
     41 CB         31.6239   27.5892    1.2852 C.3       6 UNK        -0.1929 
     42 C          30.5686   29.2380    2.9455 C.2       6 UNK         0.5070 
     43 O          31.7046   29.6660    3.1516 O.2       6 UNK        -0.5237 
     44 N          29.4912   29.6738    3.6101 N.am      7 UNK        -0.4739 
     45 CA         29.4926   30.6678    4.6890 C.3       7 UNK         0.0276 
     46 CB         28.1114   30.6682    5.3630 C.3       7 UNK        -0.1927 
     47 C          29.8826   32.0890    4.2392 C.2       7 UNK         0.5013 
     48 O          30.1711   32.9330    5.0895 O.2       7 UNK        -0.5193 
     49 N          29.9022   32.3322    2.9212 N.am      8 UNK        -0.4253 
     50 CA         30.4060   33.5433    2.2757 C.3       8 UNK         0.0242 
     51 CB         29.9137   33.5708    0.8169 C.3       8 UNK        -0.2000 
     52 C          31.9414   33.6196    2.3773 C.2       8 UNK         0.4948 
     53 O          32.6444   33.3388    1.4044 O.2       8 UNK        -0.5275 
     54 N          32.4271   33.9592    3.5776 N.am      9 UNK        -0.4246 
     55 CA         33.8200   34.1429    4.0041 C.3       9 UNK         0.0261 
     56 CB         34.5206   35.2503    3.1926 C.3       9 UNK        -0.1959 
     57 C          34.6717   32.8612    4.0385 C.2       9 UNK         0.5033 
     58 O          35.3959   32.6698    5.0157 O.2       9 UNK        -0.5390 
     59 N          34.5799   32.0165    3.0019 N.am      10 UNK        -0.4215 
     60 CA         35.3929   30.8113    2.7863 C.3       10 UNK         0.0240 
     61 CB         34.9515   30.1181    1.4878 C.3       10 UNK        -0.1982 
     62 C          35.3961   29.8254    3.9686 C.2       10 UNK         0.4970 
     63 O          36.4726   29.4423    4.4295 O.2       10 UNK        -0.4916 
     64 N          34.2014   29.4778    4.4549 N.am      11 UNK        -0.4279 
     65 CA         33.9692   28.7099    5.6871 C.3       11 UNK         0.1003 
     66 C          33.3810   29.6024    6.8208 C.2       11 UNK         0.5709 
     67 N          33.5685   30.9173    6.7940 N.am      11 UNK        -0.7358 
     68 O          32.7580   29.1028    7.7546 O.2       11 UNK        -0.4999 
     69 C69        33.1171   27.4397    5.4179 C.3       12 UNK        -0.0954 
     70 S70        33.9582   26.2547    4.3118 S.3       12 UNK        -0.2268 
     71 C71        33.6589   24.6707    5.1589 C.3       12 UNK         0.0203 
     72 H72        25.8460   21.2246   -1.6238 H         1 UNK         0.0888 
     73 H73        26.9522   19.8798   -1.3310 H         1 UNK         0.0888 
     74 H74        26.5577   20.9946   -0.0229 H         1 UNK         0.0888 
     75 H75        28.0759   22.6057    0.3466 H         1 UNK         0.3017 
     76 H76        30.2371   23.1030   -1.6059 H         1 UNK         0.0873 
     77 H77        29.8487   24.0587    1.2775 H         1 UNK         0.0745 
     78 H78        31.2133   24.4630    0.2675 H         1 UNK         0.0745 
     79 H79        30.8614   20.7619    2.8114 H         1 UNK         0.0705 
     80 H80        29.4305   21.6198    2.2892 H         1 UNK         0.0705 
     81 H81        32.8661   22.8789    3.2680 H         1 UNK         0.1334 
     82 H82        31.3358   25.2976    6.4587 H         1 UNK         0.1417 
     83 H83        28.6725   22.8357    4.1799 H         1 UNK         0.1562 
     84 H84        27.8843   23.9418    6.2231 H         1 UNK         0.0748 
     85 H85        29.0381   24.6927    7.2904 H         1 UNK         0.0748 
     86 H86        26.1980   26.6910    4.4668 H         1 UNK         0.0940 
     87 H87        26.4381   24.9900    4.7146 H         1 UNK         0.0940 
     88 H88        28.2607   24.9815    2.9729 H         1 UNK         0.0703 
     89 H89        25.8684   26.2203    1.7519 H         1 UNK         0.3081 
     90 H90        25.1817   23.1900   -0.0096 H         1 UNK         0.0719 
     91 H91        23.7021   23.1687    1.9679 H         1 UNK         0.0809 
     92 H92        23.4701   24.9053    1.8608 H         1 UNK         0.0809 
     93 H93        22.8692   23.8524    0.5812 H         1 UNK         0.0809 
     94 H94        25.2512   24.8534   -1.4363 H         1 UNK         0.2990 
     95 H95        24.1931   26.9479   -2.3785 H         1 UNK         0.0690 
     96 H96        24.7145   29.3796   -2.3754 H         1 UNK         0.0788 
     97 H97        25.3681   29.2584   -0.7411 H         1 UNK         0.0788 
     98 H98        23.6582   28.9709   -1.0343 H         1 UNK         0.0788 
     99 H99        26.9481   27.8835   -2.0227 H         1 UNK         0.2993 
    100 H100       28.2108   25.8175   -4.4135 H         1 UNK         0.0949 
    101 H101       28.4782   28.2012   -3.7286 H         1 UNK         0.0767 
    102 H102       28.9952   27.7117   -2.1172 H         1 UNK         0.0767 
    103 H103       29.9737   27.3127   -3.5201 H         1 UNK         0.0767 
    104 H104       29.1213   24.1750   -3.2269 H         1 UNK         0.3013 
    105 H105       30.0147   26.2366    2.7027 H         1 UNK         0.3121 
    106 H106       29.7800   28.6392    1.0578 H         1 UNK         0.0774 
    107 H107       32.2212   28.3773    0.8274 H         1 UNK         0.0815 
    108 H108       32.2383   27.1098    2.0470 H         1 UNK         0.0815 
    109 H109       31.4164   26.8567    0.5057 H         1 UNK         0.0815 
    110 H110       28.5945   29.2750    3.3500 H         1 UNK         0.2987 
    111 H111       30.2355   30.3554    5.4266 H         1 UNK         0.0949 
    112 H112       28.0824   31.3709    6.1970 H         1 UNK         0.0806 
    113 H113       27.8656   29.6838    5.7626 H         1 UNK         0.0806 
    114 H114       27.3228   30.9548    4.6661 H         1 UNK         0.0806 
    115 H115       29.6662   31.5639    2.3113 H         1 UNK         0.3010 
    116 H116       29.9902   34.4139    2.7879 H         1 UNK         0.0829 
    117 H117       30.2656   32.7061    0.2526 H         1 UNK         0.0813 
    118 H118       28.8249   33.5845    0.7656 H         1 UNK         0.0813 
    119 H119       30.2726   34.4632    0.3022 H         1 UNK         0.0813 
    120 H120       31.7414   34.0324    4.3235 H         1 UNK         0.3038 
    121 H121       33.7556   34.4938    5.0355 H         1 UNK         0.0769 
    122 H122       35.5189   35.4470    3.5861 H         1 UNK         0.0811 
    123 H123       33.9650   36.1870    3.2379 H         1 UNK         0.0811 
    124 H124       34.6360   34.9793    2.1427 H         1 UNK         0.0811 
    125 H125       33.9365   32.2815    2.2587 H         1 UNK         0.3204 
    126 H126       36.4225   31.1482    2.6503 H         1 UNK         0.0748 
    127 H127       35.5186   29.2018    1.3171 H         1 UNK         0.0771 
    128 H128       33.8960   29.8502    1.5181 H         1 UNK         0.0771 
    129 H129       35.1067   30.7625    0.6223 H         1 UNK         0.0771 
    130 H130       33.3579   29.7905    3.9777 H         1 UNK         0.2980 
    131 H131       34.9249   28.3681    6.0874 H         1 UNK         0.0545 
    132 H132       34.1480   31.3442    6.0827 H         1 UNK         0.3459 
    133 H133       33.1883   31.4800    7.5379 H         1 UNK         0.3459 
    134 H134       32.9066   26.9351    6.3606 H         1 UNK         0.0616 
    135 H135       32.1490   27.6986    4.9882 H         1 UNK         0.0616 
    136 H136       33.8287   24.7781    6.2312 H         1 UNK         0.0634 
    137 H137       34.3970   23.9476    4.8088 H         1 UNK         0.0634 
@<TRIPOS>BOND
     1    1    2 1    
     2    1   72 1    
     3    1   73 1    
     4    1   74 1    
     5    2    3 2    
     6    2    4 am   BACKBONE|DICT|INTERRES
     7    4    5 1    
     8    4   75 1    
     9    5    6 1    
    10    5   35 1    
    11    5   76 1    
    12    6    7 1    
    13    6   77 1    
    14    6   78 1    
    15    7    8 1    
    16    8    9 1    
    17    8   79 1    
    18    8   80 1    
    19    9   10 ar   
    20    9   14 ar   
    21   10   11 ar   
    22   10   81 1    
    23   11   12 ar   
    24   11   71 1    
    25   12   13 ar   
    26   12   82 1    
    27   13   14 ar   
    28   13   15 1    
    29   14   83 1    
    30   15   16 1    
    31   15   84 1    
    32   15   85 1    
    33   16   17 1    
    34   17   18 1    
    35   17   86 1    
    36   17   87 1    
    37   18   19 1    
    38   18   37 1    
    39   18   88 1    
    40   19   20 am   BACKBONE|DICT|INTERRES
    41   19   89 1    
    42   20   21 2    
    43   20   22 1    
    44   22   23 1    
    45   22   24 1    
    46   22   90 1    
    47   23   91 1    
    48   23   92 1    
    49   23   93 1    
    50   24   25 am   BACKBONE|DICT|INTERRES
    51   24   94 1    
    52   25   26 2    
    53   25   27 1    
    54   27   28 1    
    55   27   29 1    
    56   27   95 1    
    57   28   96 1    
    58   28   97 1    
    59   28   98 1    
    60   29   30 am   BACKBONE|DICT|INTERRES
    61   29   99 1    
    62   30   31 2    
    63   30   32 1    
    64   32   33 1    
    65   32   34 1    
    66   32  100 1    
    67   33  101 1    
    68   33  102 1    
    69   33  103 1    
    70   34   35 am   BACKBONE|DICT|INTERRES
    71   34  104 1    
    72   35   36 2    
    73   37   38 2    
    74   37   39 am   BACKBONE|DICT|INTERRES
    75   39   40 1    
    76   39  105 1    
    77   40   41 1    
    78   40   42 1    
    79   40  106 1    
    80   41  107 1    
    81   41  108 1    
    82   41  109 1    
    83   42   43 2    
    84   42   44 am   BACKBONE|DICT|INTERRES
    85   44   45 1    
    86   44  110 1    
    87   45   46 1    
    88   45   47 1    
    89   45  111 1    
    90   46  112 1    
    91   46  113 1    
    92   46  114 1    
    93   47   48 2    
    94   47   49 am   BACKBONE|DICT|INTERRES
    95   49   50 1    
    96   49  115 1    
    97   50   51 1    
    98   50   52 1    
    99   50  116 1    
   100   51  117 1    
   101   51  118 1    
   102   51  119 1    
   103   52   53 2    
   104   52   54 am   BACKBONE|DICT|INTERRES
   105   54   55 1    
   106   54  120 1    
   107   55   56 1    
   108   55   57 1    
   109   55  121 1    
   110   56  122 1    
   111   56  123 1    
   112   56  124 1    
   113   57   58 2    
   114   57   59 am   BACKBONE|DICT|INTERRES
   115   59   60 1    
   116   59  125 1    
   117   60   61 1    
   118   60   62 1    
   119   60  126 1    
   120   61  127 1    
   121   61  128 1    
   122   61  129 1    
   123   62   63 2    
   124   62   64 am   BACKBONE|DICT|INTERRES
   125   64   65 1    
   126   64  130 1    
   127   65   66 1    
   128   65   69 1    
   129   65  131 1    
   130   66   67 am   BACKBONE|DICT|INTERRES
   131   66   68 2    
   132   67  132 1    
   133   67  133 1    
   134   69   70 1    
   135   69  134 1    
   136   69  135 1    
   137   70   71 1    
   138   71  136 1    
   139   71  137 1    
@<TRIPOS>SUBSTRUCTURE
     1 UNK         1 GROUP             0       ****    0 ROOT    
