@<TRIPOS>MOLECULE
3R136
137   139    1
SMALL
USER_CHARGES


@<TRIPOS>ATOM
      1 CA         29.1176   17.2654   -1.6741 C.3       0 UNK        -0.1979 
      2 C          28.9217   18.7716   -1.7660 C.2       0 UNK         0.4864 
      3 O          28.7729   19.3009   -2.8680 O.2       0 UNK        -0.5359 
      4 N          28.9256   19.4630   -0.6173 N.am      1 UNK        -0.4318 
      5 CA         28.7270   20.9134   -0.5066 C.3       1 UNK         0.0824 
      6 C6         29.1222   21.4182    0.9049 C.3       12 UNK        -0.0944 
      7 S7         29.2381   23.2339    1.0288 S.3       12 UNK        -0.2672 
      8 C8         30.0812   23.3967    2.6308 C.3       12 UNK         0.0333 
      9 C9         30.0822   24.8427    3.0985 C.ar      12 UNK        -0.0807 
     10 C10        31.2048   25.6544    2.9092 C.ar      12 UNK        -0.0894 
     11 C11        31.1982   26.9860    3.3380 C.ar      12 UNK        -0.0804 
     12 C12        30.0558   27.5050    3.9559 C.ar      12 UNK        -0.0824 
     13 C13        28.9222   26.7051    4.1335 C.ar      12 UNK        -0.0762 
     14 C14        28.9465   25.3724    3.7153 C.ar      12 UNK        -0.0782 
     15 C15        27.6527   27.2814    4.7402 C.3       12 UNK         0.0230 
     16 S16        26.3779   27.5469    3.4653 S.3       12 UNK        -0.2608 
     17 C17        27.0970   28.9244    2.5076 C.3       12 UNK        -0.0989 
     18 CA         27.8697   28.4661    1.2398 C.3       5 UNK         0.0716 
     19 N          27.0213   27.6828    0.3339 N.am      5 UNK        -0.4135 
     20 C          27.4374   26.8548   -0.6328 C.2       4 UNK         0.5031 
     21 O          28.6213   26.6982   -0.9399 O.2       4 UNK        -0.5229 
     22 CA         26.3424   26.0419   -1.3454 C.3       4 UNK         0.0329 
     23 CB         26.8302   25.4349   -2.6733 C.3       4 UNK        -0.2001 
     24 N          25.8679   24.9714   -0.4664 N.am      4 UNK        -0.4303 
     25 C          24.9927   25.1482    0.5353 C.2       3 UNK         0.5044 
     26 O          24.4271   26.2241    0.7430 O.2       3 UNK        -0.5152 
     27 CA         24.7279   23.9559    1.4808 C.3       3 UNK         0.0319 
     28 CB         23.3382   24.0221    2.1496 C.3       3 UNK        -0.2001 
     29 N          24.9562   22.6402    0.8706 N.am      3 UNK        -0.4354 
     30 C          24.3183   22.1036   -0.1824 C.2       2 UNK         0.4964 
     31 O          23.3699   22.6405   -0.7572 O.2       2 UNK        -0.5047 
     32 CA         24.8493   20.7404   -0.6835 C.3       2 UNK         0.0288 
     33 CB         24.5001   20.4790   -2.1646 C.3       2 UNK        -0.2113 
     34 N          26.2915   20.5406   -0.4602 N.am      2 UNK        -0.4145 
     35 C          27.2900   21.3349   -0.8847 C.2       1 UNK         0.5006 
     36 O          27.1131   22.3695   -1.5285 O.2       1 UNK        -0.5103 
     37 C          28.5849   29.6483    0.5426 C.2       5 UNK         0.5055 
     38 O          28.4521   30.7951    0.9757 O.2       5 UNK        -0.5220 
     39 N          29.3478   29.3601   -0.5173 N.am      6 UNK        -0.4450 
     40 CA         30.2883   30.2892   -1.1406 C.3       6 UNK         0.0367 
     41 CB         30.7166   29.7390   -2.5102 C.3       6 UNK        -0.1929 
     42 C          31.5041   30.4779   -0.2200 C.2       6 UNK         0.5070 
     43 O          32.0314   29.4855    0.2837 O.2       6 UNK        -0.5237 
     44 N          31.9165   31.7370   -0.0169 N.am      7 UNK        -0.4739 
     45 CA         32.9829   32.1697    0.8996 C.3       7 UNK         0.0276 
     46 CB         34.3629   31.6462    0.4447 C.3       7 UNK        -0.1927 
     47 C          32.6770   31.8404    2.3757 C.2       7 UNK         0.5013 
     48 O          33.5767   31.4542    3.1249 O.2       7 UNK        -0.5193 
     49 N          31.4123   32.0319    2.7845 N.am      8 UNK        -0.4253 
     50 CA         30.9074   31.7890    4.1437 C.3       8 UNK         0.0242 
     51 CB         29.4162   32.1519    4.2115 C.3       8 UNK        -0.2000 
     52 C          31.6792   32.5213    5.2560 C.2       8 UNK         0.4948 
     53 O          31.7874   31.9901    6.3601 O.2       8 UNK        -0.5275 
     54 N          32.2409   33.6957    4.9364 N.am      9 UNK        -0.4246 
     55 CA         33.1179   34.4723    5.8154 C.3       9 UNK         0.0261 
     56 CB         33.3845   35.8454    5.1773 C.3       9 UNK        -0.1959 
     57 C          34.4477   33.7693    6.1533 C.2       9 UNK         0.5033 
     58 O          35.0112   34.0508    7.2121 O.2       9 UNK        -0.5390 
     59 N          34.9274   32.8793    5.2708 N.am      10 UNK        -0.4215 
     60 CA         36.1133   32.0546    5.5064 C.3       10 UNK         0.0240 
     61 CB         36.7766   31.6911    4.1669 C.3       10 UNK        -0.1982 
     62 C          35.7618   30.7901    6.3043 C.2       10 UNK         0.4970 
     63 O          36.5253   30.4137    7.1946 O.2       10 UNK        -0.4916 
     64 N          34.6241   30.1613    5.9769 N.am      11 UNK        -0.4279 
     65 CA         34.1146   28.9671    6.6705 C.3       11 UNK         0.1003 
     66 C          33.5991   29.2467    8.1092 C.2       11 UNK         0.5709 
     67 N          32.9743   30.3866    8.3740 N.am      11 UNK        -0.7358 
     68 O          33.7783   28.4191    8.9996 O.2       11 UNK        -0.4999 
     69 C69        33.0466   28.2179    5.8356 C.3       12 UNK        -0.0954 
     70 S70        33.7452   27.5417    4.2936 S.3       12 UNK        -0.2268 
     71 C71        32.4150   27.8687    3.0988 C.3       12 UNK         0.0203 
     72 H72        28.2550   16.7489   -2.0942 H         1 UNK         0.0888 
     73 H73        30.0014   16.9671   -2.2375 H         1 UNK         0.0888 
     74 H74        29.2440   16.9317   -0.6443 H         1 UNK         0.0888 
     75 H75        29.0700   18.9691    0.2523 H         1 UNK         0.3017 
     76 H76        29.3973   21.3833   -1.2302 H         1 UNK         0.0873 
     77 H77        30.0982   21.0106    1.1746 H         1 UNK         0.0745 
     78 H78        28.4238   21.0558    1.6618 H         1 UNK         0.0745 
     79 H79        29.5807   22.7725    3.3727 H         1 UNK         0.0705 
     80 H80        31.1014   23.0195    2.5442 H         1 UNK         0.0705 
     81 H81        32.0841   25.2533    2.4237 H         1 UNK         0.1334 
     82 H82        30.0382   28.5373    4.2747 H         1 UNK         0.1417 
     83 H83        28.0683   24.7543    3.8446 H         1 UNK         0.1562 
     84 H84        27.8546   28.2179    5.2626 H         1 UNK         0.0748 
     85 H85        27.2645   26.5908    5.4903 H         1 UNK         0.0748 
     86 H86        27.7490   29.4959    3.1696 H         1 UNK         0.0940 
     87 H87        26.2866   29.6017    2.2314 H         1 UNK         0.0940 
     88 H88        28.6689   27.7996    1.5665 H         1 UNK         0.0703 
     89 H89        26.0310   27.6832    0.5491 H         1 UNK         0.3081 
     90 H90        25.5143   26.7157   -1.5764 H         1 UNK         0.0719 
     91 H91        27.1439   26.2167   -3.3661 H         1 UNK         0.0809 
     92 H92        27.6824   24.7700   -2.5271 H         1 UNK         0.0809 
     93 H93        26.0414   24.8624   -3.1616 H         1 UNK         0.0809 
     94 H94        26.2992   24.0621   -0.5968 H         1 UNK         0.2990 
     95 H95        25.4723   24.0473    2.2733 H         1 UNK         0.0690 
     96 H96        23.1831   23.1832    2.8279 H         1 UNK         0.0788 
     97 H97        22.5336   24.0135    1.4137 H         1 UNK         0.0788 
     98 H98        23.2301   24.9348    2.7371 H         1 UNK         0.0788 
     99 H99        25.7227   22.1117    1.2624 H         1 UNK         0.2993 
    100 H100       24.3372   19.9848   -0.0858 H         1 UNK         0.0949 
    101 H101       24.9303   21.2375   -2.8197 H         1 UNK         0.0767 
    102 H102       24.8673   19.5065   -2.4928 H         1 UNK         0.0767 
    103 H103       23.4208   20.4859   -2.3224 H         1 UNK         0.0767 
    104 H104       26.5416   19.7151    0.0666 H         1 UNK         0.3013 
    105 H105       29.3992   28.3833   -0.7998 H         1 UNK         0.3121 
    106 H106       29.7882   31.2487   -1.2899 H         1 UNK         0.0774 
    107 H107       31.2167   28.7737   -2.4182 H         1 UNK         0.0815 
    108 H108       29.8599   29.6107   -3.1719 H         1 UNK         0.0815 
    109 H109       31.4104   30.4205   -3.0042 H         1 UNK         0.0815 
    110 H110       31.4194   32.4813   -0.4882 H         1 UNK         0.2987 
    111 H111       33.0152   33.2587    0.8391 H         1 UNK         0.0949 
    112 H112       34.5596   31.8957   -0.5978 H         1 UNK         0.0806 
    113 H113       35.1629   32.0885    1.0398 H         1 UNK         0.0806 
    114 H114       34.4437   30.5642    0.5532 H         1 UNK         0.0806 
    115 H115       30.7316   32.3270    2.0984 H         1 UNK         0.3010 
    116 H116       31.0090   30.7207    4.3371 H         1 UNK         0.0829 
    117 H117       29.2489   33.2112    4.0129 H         1 UNK         0.0813 
    118 H118       29.0058   31.9361    5.1992 H         1 UNK         0.0813 
    119 H119       28.8331   31.5822    3.4902 H         1 UNK         0.0813 
    120 H120       32.0890   34.0589    4.0069 H         1 UNK         0.3038 
    121 H121       32.5866   34.6297    6.7565 H         1 UNK         0.0769 
    122 H122       32.4572   36.3949    5.0134 H         1 UNK         0.0811 
    123 H123       33.8967   35.7535    4.2187 H         1 UNK         0.0811 
    124 H124       34.0123   36.4604    5.8239 H         1 UNK         0.0811 
    125 H125       34.3846   32.6562    4.4416 H         1 UNK         0.3204 
    126 H126       36.8378   32.6288    6.0883 H         1 UNK         0.0748 
    127 H127       36.1343   31.0651    3.5468 H         1 UNK         0.0771 
    128 H128       37.0287   32.5834    3.5938 H         1 UNK         0.0771 
    129 H129       37.7027   31.1390    4.3315 H         1 UNK         0.0771 
    130 H130       34.0664   30.5154    5.2120 H         1 UNK         0.2980 
    131 H131       34.9600   28.2855    6.7874 H         1 UNK         0.0545 
    132 H132       32.6507   30.5631    9.3109 H         1 UNK         0.3459 
    133 H133       32.7264   31.0302    7.6260 H         1 UNK         0.3459 
    134 H134       32.2118   28.8829    5.6094 H         1 UNK         0.0616 
    135 H135       32.6295   27.3790    6.3961 H         1 UNK         0.0616 
    136 H136       32.8016   27.6812    2.0965 H         1 UNK         0.0634 
    137 H137       32.1460   28.9247    3.1262 H         1 UNK         0.0634 
@<TRIPOS>BOND
     1    1    2 1    
     2    1   72 1    
     3    1   73 1    
     4    1   74 1    
     5    2    3 2    
     6    2    4 am   BACKBONE|DICT|INTERRES
     7    4    5 1    
     8    4   75 1    
     9    5    6 1    
    10    5   35 1    
    11    5   76 1    
    12    6    7 1    
    13    6   77 1    
    14    6   78 1    
    15    7    8 1    
    16    8    9 1    
    17    8   79 1    
    18    8   80 1    
    19    9   10 ar   
    20    9   14 ar   
    21   10   11 ar   
    22   10   81 1    
    23   11   12 ar   
    24   11   71 1    
    25   12   13 ar   
    26   12   82 1    
    27   13   14 ar   
    28   13   15 1    
    29   14   83 1    
    30   15   16 1    
    31   15   84 1    
    32   15   85 1    
    33   16   17 1    
    34   17   18 1    
    35   17   86 1    
    36   17   87 1    
    37   18   19 1    
    38   18   37 1    
    39   18   88 1    
    40   19   20 am   BACKBONE|DICT|INTERRES
    41   19   89 1    
    42   20   21 2    
    43   20   22 1    
    44   22   23 1    
    45   22   24 1    
    46   22   90 1    
    47   23   91 1    
    48   23   92 1    
    49   23   93 1    
    50   24   25 am   BACKBONE|DICT|INTERRES
    51   24   94 1    
    52   25   26 2    
    53   25   27 1    
    54   27   28 1    
    55   27   29 1    
    56   27   95 1    
    57   28   96 1    
    58   28   97 1    
    59   28   98 1    
    60   29   30 am   BACKBONE|DICT|INTERRES
    61   29   99 1    
    62   30   31 2    
    63   30   32 1    
    64   32   33 1    
    65   32   34 1    
    66   32  100 1    
    67   33  101 1    
    68   33  102 1    
    69   33  103 1    
    70   34   35 am   BACKBONE|DICT|INTERRES
    71   34  104 1    
    72   35   36 2    
    73   37   38 2    
    74   37   39 am   BACKBONE|DICT|INTERRES
    75   39   40 1    
    76   39  105 1    
    77   40   41 1    
    78   40   42 1    
    79   40  106 1    
    80   41  107 1    
    81   41  108 1    
    82   41  109 1    
    83   42   43 2    
    84   42   44 am   BACKBONE|DICT|INTERRES
    85   44   45 1    
    86   44  110 1    
    87   45   46 1    
    88   45   47 1    
    89   45  111 1    
    90   46  112 1    
    91   46  113 1    
    92   46  114 1    
    93   47   48 2    
    94   47   49 am   BACKBONE|DICT|INTERRES
    95   49   50 1    
    96   49  115 1    
    97   50   51 1    
    98   50   52 1    
    99   50  116 1    
   100   51  117 1    
   101   51  118 1    
   102   51  119 1    
   103   52   53 2    
   104   52   54 am   BACKBONE|DICT|INTERRES
   105   54   55 1    
   106   54  120 1    
   107   55   56 1    
   108   55   57 1    
   109   55  121 1    
   110   56  122 1    
   111   56  123 1    
   112   56  124 1    
   113   57   58 2    
   114   57   59 am   BACKBONE|DICT|INTERRES
   115   59   60 1    
   116   59  125 1    
   117   60   61 1    
   118   60   62 1    
   119   60  126 1    
   120   61  127 1    
   121   61  128 1    
   122   61  129 1    
   123   62   63 2    
   124   62   64 am   BACKBONE|DICT|INTERRES
   125   64   65 1    
   126   64  130 1    
   127   65   66 1    
   128   65   69 1    
   129   65  131 1    
   130   66   67 am   BACKBONE|DICT|INTERRES
   131   66   68 2    
   132   67  132 1    
   133   67  133 1    
   134   69   70 1    
   135   69  134 1    
   136   69  135 1    
   137   70   71 1    
   138   71  136 1    
   139   71  137 1    
@<TRIPOS>SUBSTRUCTURE
     1 UNK         1 GROUP             0       ****    0 ROOT    
