@<TRIPOS>MOLECULE
3R136
137   139    1
SMALL
USER_CHARGES


@<TRIPOS>ATOM
      1 CA         32.6573   19.5230   -2.4026 C.3       0 UNK        -0.1979 
      2 C          31.8207   20.2346   -1.3491 C.2       0 UNK         0.4864 
      3 O          31.4601   19.6213   -0.3434 O.2       0 UNK        -0.5359 
      4 N          31.5179   21.5212   -1.5746 N.am      1 UNK        -0.4318 
      5 CA         30.6863   22.3792   -0.7223 C.3       1 UNK         0.0824 
      6 C6         31.3216   22.6330    0.6774 C.3       12 UNK        -0.0944 
      7 S7         30.7236   24.1747    1.4490 S.3       12 UNK        -0.2672 
      8 C8         30.2652   23.5943    3.1111 C.3       12 UNK         0.0333 
      9 C9         29.4795   24.6628    3.8514 C.ar      12 UNK        -0.0807 
     10 C10        30.1527   25.7084    4.4871 C.ar      12 UNK        -0.0894 
     11 C11        29.4420   26.7082    5.1561 C.ar      12 UNK        -0.0804 
     12 C12        28.0461   26.6502    5.1989 C.ar      12 UNK        -0.0824 
     13 C13        27.3604   25.6117    4.5596 C.ar      12 UNK        -0.0762 
     14 C14        28.0822   24.6189    3.8897 C.ar      12 UNK        -0.0782 
     15 C15        25.8386   25.5673    4.5789 C.3       12 UNK         0.0230 
     16 S16        25.1196   26.1043    2.9922 S.3       12 UNK        -0.2608 
     17 C17        25.6559   27.8465    2.9088 C.3       12 UNK        -0.0989 
     18 CA         26.8396   28.0439    1.9211 C.3       5 UNK         0.0716 
     19 N          26.4984   27.7083    0.5311 N.am      5 UNK        -0.4135 
     20 C          25.6484   28.3640   -0.2712 C.2       4 UNK         0.5031 
     21 O          24.9976   29.3516    0.0726 O.2       4 UNK        -0.5229 
     22 CA         25.4926   27.8488   -1.7137 C.3       4 UNK         0.0329 
     23 CB         26.6597   28.3313   -2.5990 C.3       4 UNK        -0.2001 
     24 N          25.2744   26.4001   -1.8475 N.am      4 UNK        -0.4303 
     25 C          26.1142   25.3933   -1.5717 C.2       3 UNK         0.5044 
     26 O          27.2445   25.5443   -1.0986 O.2       3 UNK        -0.5152 
     27 CA         25.6064   23.9857   -1.9299 C.3       3 UNK         0.0319 
     28 CB         25.7852   23.7179   -3.4335 C.3       3 UNK        -0.2001 
     29 N          26.3283   22.9566   -1.1866 N.am      3 UNK        -0.4354 
     30 C          26.1305   22.6474    0.0988 C.2       2 UNK         0.4964 
     31 O          25.2075   23.0995    0.7758 O.2       2 UNK        -0.5047 
     32 CA         27.1393   21.6849    0.7511 C.3       2 UNK         0.0288 
     33 CB         26.7966   20.2137    0.4437 C.3       2 UNK        -0.2113 
     34 N          28.5451   21.9969    0.4478 N.am      2 UNK        -0.4145 
     35 C          29.2156   21.8947   -0.7093 C.2       1 UNK         0.5006 
     36 O          28.7088   21.4864   -1.7581 O.2       1 UNK        -0.5103 
     37 C          27.4718   29.4508    2.0175 C.2       5 UNK         0.5055 
     38 O          27.0295   30.2837    2.8131 O.2       5 UNK        -0.5220 
     39 N          28.4895   29.6994    1.1796 N.am      6 UNK        -0.4450 
     40 CA         29.2272   30.9615    1.0797 C.3       6 UNK         0.0367 
     41 CB         29.9814   30.9903   -0.2627 C.3       6 UNK        -0.1929 
     42 C          30.1711   31.1614    2.2791 C.2       6 UNK         0.5070 
     43 O          31.3892   31.0470    2.1314 O.2       6 UNK        -0.5237 
     44 N          29.5876   31.4311    3.4539 N.am      7 UNK        -0.4739 
     45 CA         30.2400   31.4980    4.7675 C.3       7 UNK         0.0276 
     46 CB         29.1940   31.8400    5.8391 C.3       7 UNK        -0.1927 
     47 C          31.4563   32.4294    4.8769 C.2       7 UNK         0.5013 
     48 O          32.3516   32.1432    5.6708 O.2       7 UNK        -0.5193 
     49 N          31.4944   33.4859    4.0549 N.am      8 UNK        -0.4253 
     50 CA         32.6282   34.4051    3.9272 C.3       8 UNK         0.0242 
     51 CB         32.2128   35.5924    3.0428 C.3       8 UNK        -0.2000 
     52 C          33.9110   33.7491    3.3765 C.2       8 UNK         0.4948 
     53 O          34.9959   34.2790    3.6210 O.2       8 UNK        -0.5275 
     54 N          33.7720   32.6320    2.6483 N.am      9 UNK        -0.4246 
     55 CA         34.8755   31.8651    2.0713 C.3       9 UNK         0.0261 
     56 CB         34.7407   31.8528    0.5386 C.3       9 UNK        -0.1959 
     57 C          34.9080   30.4342    2.6243 C.2       9 UNK         0.5033 
     58 O          35.9611   29.9870    3.0795 O.2       9 UNK        -0.5390 
     59 N          33.7650   29.7362    2.5774 N.am      10 UNK        -0.4215 
     60 CA         33.6396   28.3118    2.9003 C.3       10 UNK         0.0240 
     61 CB         32.3228   27.7794    2.3100 C.3       10 UNK        -0.1982 
     62 C          33.7439   27.9869    4.4011 C.2       10 UNK         0.4970 
     63 O          34.0661   26.8472    4.7377 O.2       10 UNK        -0.4916 
     64 N          33.4801   28.9765    5.2623 N.am      11 UNK        -0.4279 
     65 CA         33.6031   28.8948    6.7269 C.3       11 UNK         0.1003 
     66 C          34.5842   29.9686    7.2850 C.2       11 UNK         0.5709 
     67 N          35.4524   30.5606    6.4707 N.am      11 UNK        -0.7358 
     68 O          34.5879   30.2521    8.4808 O.2       11 UNK        -0.4999 
     69 C69        32.2123   28.9111    7.4269 C.3       12 UNK        -0.0954 
     70 S70        31.2615   27.3770    7.1486 S.3       12 UNK        -0.2268 
     71 C71        30.1857   27.8795    5.7742 C.3       12 UNK         0.0203 
     72 H72        32.1080   18.6724   -2.8053 H         1 UNK         0.0888 
     73 H73        32.9175   20.1815   -3.2312 H         1 UNK         0.0888 
     74 H74        33.5822   19.1535   -1.9604 H         1 UNK         0.0888 
     75 H75        31.8230   21.9481   -2.4383 H         1 UNK         0.3017 
     76 H76        30.6597   23.3373   -1.2443 H         1 UNK         0.0873 
     77 H77        31.1787   21.7780    1.3409 H         1 UNK         0.0745 
     78 H78        32.4025   22.7408    0.5737 H         1 UNK         0.0745 
     79 H79        31.1702   23.3434    3.6669 H         1 UNK         0.0705 
     80 H80        29.6797   22.6764    3.0466 H         1 UNK         0.0705 
     81 H81        31.2330   25.7528    4.4512 H         1 UNK         0.1334 
     82 H82        27.4922   27.4254    5.7107 H         1 UNK         0.1417 
     83 H83        27.5503   23.8223    3.3880 H         1 UNK         0.1562 
     84 H84        25.4413   26.1859    5.3853 H         1 UNK         0.0748 
     85 H85        25.5085   24.5485    4.7875 H         1 UNK         0.0748 
     86 H86        25.9241   28.1803    3.9122 H         1 UNK         0.0940 
     87 H87        24.8022   28.4595    2.6158 H         1 UNK         0.0940 
     88 H88        27.6309   27.3509    2.2121 H         1 UNK         0.0703 
     89 H89        26.9612   26.8928    0.1344 H         1 UNK         0.3081 
     90 H90        24.5845   28.3102   -2.1057 H         1 UNK         0.0719 
     91 H91        26.5056   28.0547   -3.6420 H         1 UNK         0.0809 
     92 H92        27.6168   27.9168   -2.2812 H         1 UNK         0.0809 
     93 H93        26.7515   29.4177   -2.5626 H         1 UNK         0.0809 
     94 H94        24.3637   26.1496   -2.2083 H         1 UNK         0.2990 
     95 H95        24.5448   23.9199   -1.6815 H         1 UNK         0.0690 
     96 H96        25.4147   22.7295   -3.7065 H         1 UNK         0.0788 
     97 H97        26.8334   23.7759   -3.7306 H         1 UNK         0.0788 
     98 H98        25.2356   24.4448   -4.0331 H         1 UNK         0.0788 
     99 H99        27.1300   22.5330   -1.6449 H         1 UNK         0.2993 
    100 H100       27.0376   21.8194    1.8292 H         1 UNK         0.0949 
    101 H101       26.8379   19.9959   -0.6238 H         1 UNK         0.0767 
    102 H102       27.4811   19.5336    0.9510 H         1 UNK         0.0767 
    103 H103       25.7883   19.9724    0.7826 H         1 UNK         0.0767 
    104 H104       29.0563   22.4291    1.2051 H         1 UNK         0.3013 
    105 H105       28.7971   28.9545    0.5714 H         1 UNK         0.3121 
    106 H106       28.5117   31.7867    1.0796 H         1 UNK         0.0774 
    107 H107       30.5366   31.9223   -0.3779 H         1 UNK         0.0815 
    108 H108       30.6994   30.1730   -0.3430 H         1 UNK         0.0815 
    109 H109       29.2943   30.9179   -1.1060 H         1 UNK         0.0815 
    110 H110       28.5719   31.4264    3.4590 H         1 UNK         0.2987 
    111 H111       30.6204   30.5017    4.9726 H         1 UNK         0.0949 
    112 H112       28.3919   31.1018    5.8612 H         1 UNK         0.0806 
    113 H113       29.6425   31.8579    6.8337 H         1 UNK         0.0806 
    114 H114       28.7452   32.8186    5.6648 H         1 UNK         0.0806 
    115 H115       30.7116   33.6313    3.4340 H         1 UNK         0.3010 
    116 H116       32.8619   34.7840    4.9245 H         1 UNK         0.0829 
    117 H117       31.3582   36.1225    3.4637 H         1 UNK         0.0813 
    118 H118       33.0258   36.3143    2.9518 H         1 UNK         0.0813 
    119 H119       31.9482   35.2716    2.0344 H         1 UNK         0.0813 
    120 H120       32.8387   32.2544    2.5107 H         1 UNK         0.3038 
    121 H121       35.8340   32.3265    2.3185 H         1 UNK         0.0769 
    122 H122       34.8091   32.8612    0.1305 H         1 UNK         0.0811 
    123 H123       33.7892   31.4276    0.2160 H         1 UNK         0.0811 
    124 H124       35.5360   31.2634    0.0802 H         1 UNK         0.0811 
    125 H125       32.9171   30.1965    2.2454 H         1 UNK         0.3204 
    126 H126       34.4605   27.7879    2.4059 H         1 UNK         0.0748 
    127 H127       32.2234   26.7075    2.4824 H         1 UNK         0.0771 
    128 H128       31.4514   28.2661    2.7475 H         1 UNK         0.0771 
    129 H129       32.2815   27.9337    1.2317 H         1 UNK         0.0771 
    130 H130       33.2577   29.8936    4.9021 H         1 UNK         0.2980 
    131 H131       34.0846   27.9526    6.9939 H         1 UNK         0.0545 
    132 H132       36.0844   31.2485    6.8480 H         1 UNK         0.3459 
    133 H133       35.5105   30.3037    5.4970 H         1 UNK         0.3459 
    134 H134       32.3264   29.0010    8.5083 H         1 UNK         0.0616 
    135 H135       31.6292   29.7789    7.1161 H         1 UNK         0.0616 
    136 H136       30.7962   28.3283    4.9945 H         1 UNK         0.0634 
    137 H137       29.4924   28.6464    6.1224 H         1 UNK         0.0634 
@<TRIPOS>BOND
     1    1    2 1    
     2    1   72 1    
     3    1   73 1    
     4    1   74 1    
     5    2    3 2    
     6    2    4 am   BACKBONE|DICT|INTERRES
     7    4    5 1    
     8    4   75 1    
     9    5    6 1    
    10    5   35 1    
    11    5   76 1    
    12    6    7 1    
    13    6   77 1    
    14    6   78 1    
    15    7    8 1    
    16    8    9 1    
    17    8   79 1    
    18    8   80 1    
    19    9   10 ar   
    20    9   14 ar   
    21   10   11 ar   
    22   10   81 1    
    23   11   12 ar   
    24   11   71 1    
    25   12   13 ar   
    26   12   82 1    
    27   13   14 ar   
    28   13   15 1    
    29   14   83 1    
    30   15   16 1    
    31   15   84 1    
    32   15   85 1    
    33   16   17 1    
    34   17   18 1    
    35   17   86 1    
    36   17   87 1    
    37   18   19 1    
    38   18   37 1    
    39   18   88 1    
    40   19   20 am   BACKBONE|DICT|INTERRES
    41   19   89 1    
    42   20   21 2    
    43   20   22 1    
    44   22   23 1    
    45   22   24 1    
    46   22   90 1    
    47   23   91 1    
    48   23   92 1    
    49   23   93 1    
    50   24   25 am   BACKBONE|DICT|INTERRES
    51   24   94 1    
    52   25   26 2    
    53   25   27 1    
    54   27   28 1    
    55   27   29 1    
    56   27   95 1    
    57   28   96 1    
    58   28   97 1    
    59   28   98 1    
    60   29   30 am   BACKBONE|DICT|INTERRES
    61   29   99 1    
    62   30   31 2    
    63   30   32 1    
    64   32   33 1    
    65   32   34 1    
    66   32  100 1    
    67   33  101 1    
    68   33  102 1    
    69   33  103 1    
    70   34   35 am   BACKBONE|DICT|INTERRES
    71   34  104 1    
    72   35   36 2    
    73   37   38 2    
    74   37   39 am   BACKBONE|DICT|INTERRES
    75   39   40 1    
    76   39  105 1    
    77   40   41 1    
    78   40   42 1    
    79   40  106 1    
    80   41  107 1    
    81   41  108 1    
    82   41  109 1    
    83   42   43 2    
    84   42   44 am   BACKBONE|DICT|INTERRES
    85   44   45 1    
    86   44  110 1    
    87   45   46 1    
    88   45   47 1    
    89   45  111 1    
    90   46  112 1    
    91   46  113 1    
    92   46  114 1    
    93   47   48 2    
    94   47   49 am   BACKBONE|DICT|INTERRES
    95   49   50 1    
    96   49  115 1    
    97   50   51 1    
    98   50   52 1    
    99   50  116 1    
   100   51  117 1    
   101   51  118 1    
   102   51  119 1    
   103   52   53 2    
   104   52   54 am   BACKBONE|DICT|INTERRES
   105   54   55 1    
   106   54  120 1    
   107   55   56 1    
   108   55   57 1    
   109   55  121 1    
   110   56  122 1    
   111   56  123 1    
   112   56  124 1    
   113   57   58 2    
   114   57   59 am   BACKBONE|DICT|INTERRES
   115   59   60 1    
   116   59  125 1    
   117   60   61 1    
   118   60   62 1    
   119   60  126 1    
   120   61  127 1    
   121   61  128 1    
   122   61  129 1    
   123   62   63 2    
   124   62   64 am   BACKBONE|DICT|INTERRES
   125   64   65 1    
   126   64  130 1    
   127   65   66 1    
   128   65   69 1    
   129   65  131 1    
   130   66   67 am   BACKBONE|DICT|INTERRES
   131   66   68 2    
   132   67  132 1    
   133   67  133 1    
   134   69   70 1    
   135   69  134 1    
   136   69  135 1    
   137   70   71 1    
   138   71  136 1    
   139   71  137 1    
@<TRIPOS>SUBSTRUCTURE
     1 UNK         1 GROUP             0       ****    0 ROOT    
