@<TRIPOS>MOLECULE
3R136
137   139    1
SMALL
USER_CHARGES


@<TRIPOS>ATOM
      1 CA         29.1245   19.0593    1.6675 C.3       0 UNK        -0.1979 
      2 C          30.2093   19.7499    0.8542 C.2       0 UNK         0.4864 
      3 O          31.3618   19.3154    0.8770 O.2       0 UNK        -0.5359 
      4 N          29.8494   20.8195    0.1393 N.am      1 UNK        -0.4318 
      5 CA         30.7311   21.6171   -0.7109 C.3       1 UNK         0.0824 
      6 C6         31.6780   22.5487    0.0991 C.3       12 UNK        -0.0944 
      7 S7         30.8187   23.8081    1.1044 S.3       12 UNK        -0.2672 
      8 C8         30.9881   23.1038    2.7712 C.3       12 UNK         0.0333 
      9 C9         30.3192   23.9925    3.8072 C.ar      12 UNK        -0.0807 
     10 C10        30.9789   25.1292    4.2781 C.ar      12 UNK        -0.0894 
     11 C11        30.3779   25.9609    5.2257 C.ar      12 UNK        -0.0804 
     12 C12        29.1146   25.6339    5.7272 C.ar      12 UNK        -0.0824 
     13 C13        28.4386   24.5029    5.2560 C.ar      12 UNK        -0.0762 
     14 C14        29.0453   23.6866    4.2949 C.ar      12 UNK        -0.0782 
     15 C15        27.0522   24.1572    5.7787 C.3       12 UNK         0.0230 
     16 S16        25.7434   24.8266    4.7027 S.3       12 UNK        -0.2608 
     17 C17        25.6577   26.5692    5.2413 C.3       12 UNK        -0.0989 
     18 CA         26.4257   27.5403    4.3098 C.3       5 UNK         0.0716 
     19 N          25.9890   27.4379    2.9092 N.am      5 UNK        -0.4135 
     20 C          26.6044   28.0373    1.8829 C.2       4 UNK         0.5031 
     21 O          27.5354   28.8329    2.0170 O.2       4 UNK        -0.5229 
     22 CA         26.0658   27.7492    0.4742 C.3       4 UNK         0.0329 
     23 CB         25.0737   28.8428    0.0455 C.3       4 UNK        -0.2001 
     24 N          27.1836   27.7133   -0.4692 N.am      4 UNK        -0.4303 
     25 C          28.0019   26.6640   -0.6103 C.2       3 UNK         0.5044 
     26 O          27.7898   25.5568   -0.1109 O.2       3 UNK        -0.5152 
     27 CA         29.2983   26.9215   -1.3953 C.3       3 UNK         0.0319 
     28 CB         30.3925   27.4529   -0.4524 C.3       3 UNK        -0.2001 
     29 N          29.7798   25.7047   -2.0499 N.am      3 UNK        -0.4354 
     30 C          29.2696   25.2011   -3.1825 C.2       2 UNK         0.4964 
     31 O          28.3733   25.7471   -3.8279 O.2       2 UNK        -0.5047 
     32 CA         29.8668   23.8812   -3.7083 C.3       2 UNK         0.0288 
     33 CB         30.8748   24.1614   -4.8358 C.3       2 UNK        -0.2113 
     34 N          30.5207   23.0743   -2.6731 N.am      2 UNK        -0.4145 
     35 C          29.8652   22.3662   -1.7430 C.2       1 UNK         0.5006 
     36 O          28.6335   22.2873   -1.6864 O.2       1 UNK        -0.5103 
     37 C          26.3722   28.9760    4.8795 C.2       5 UNK         0.5055 
     38 O          27.1137   29.2807    5.8146 O.2       5 UNK        -0.5220 
     39 N          25.4987   29.8226    4.3172 N.am      6 UNK        -0.4450 
     40 CA         25.3433   31.2308    4.6827 C.3       6 UNK         0.0367 
     41 CB         23.8994   31.6614    4.3718 C.3       6 UNK        -0.1929 
     42 C          26.3440   32.1666    3.9764 C.2       6 UNK         0.5070 
     43 O          26.4294   33.3333    4.3632 O.2       6 UNK        -0.5237 
     44 N          27.0549   31.6833    2.9466 N.am      7 UNK        -0.4739 
     45 CA         28.0203   32.4764    2.1822 C.3       7 UNK         0.0276 
     46 CB         28.2156   31.8426    0.7938 C.3       7 UNK        -0.1927 
     47 C          29.3684   32.5764    2.9112 C.2       7 UNK         0.5013 
     48 O          29.7432   31.6664    3.6544 O.2       7 UNK        -0.5193 
     49 N          30.1099   33.6546    2.6295 N.am      8 UNK        -0.4253 
     50 CA         31.4891   33.8601    3.0774 C.3       8 UNK         0.0242 
     51 CB         31.7610   35.3728    3.1855 C.3       8 UNK        -0.2000 
     52 C          32.4662   33.1448    2.1249 C.2       8 UNK         0.4948 
     53 O          33.2638   33.7978    1.4489 O.2       8 UNK        -0.5275 
     54 N          32.3541   31.8153    2.0581 N.am      9 UNK        -0.4246 
     55 CA         33.1322   30.9304    1.1986 C.3       9 UNK         0.0261 
     56 CB         32.4517   30.8225   -0.1787 C.3       9 UNK        -0.1959 
     57 C          33.2377   29.5589    1.8727 C.2       9 UNK         0.5033 
     58 O          32.4306   29.2501    2.7539 O.2       9 UNK        -0.5390 
     59 N          34.2293   28.7659    1.4428 N.am      10 UNK        -0.4215 
     60 CA         34.5894   27.4143    1.9004 C.3       10 UNK         0.0240 
     61 CB         33.4564   26.4029    1.6363 C.3       10 UNK        -0.1982 
     62 C          35.0974   27.3488    3.3542 C.2       10 UNK         0.4970 
     63 O          36.1902   26.8283    3.5823 O.2       10 UNK        -0.4916 
     64 N          34.3234   27.8911    4.2989 N.am      11 UNK        -0.4279 
     65 CA         34.7254   28.1140    5.6943 C.3       11 UNK         0.1003 
     66 C          35.7291   29.2928    5.8174 C.2       11 UNK         0.5709 
     67 N          36.6157   29.2500    6.8026 N.am      11 UNK        -0.7358 
     68 O          35.6908   30.2582    5.0556 O.2       11 UNK        -0.4999 
     69 C69        33.4971   28.3353    6.6156 C.3       12 UNK        -0.0954 
     70 S70        32.4853   26.8281    6.7762 S.3       12 UNK        -0.2268 
     71 C71        31.0946   27.2227    5.6753 C.3       12 UNK         0.0203 
     72 H72        28.1584   19.5522    1.5589 H         1 UNK         0.0888 
     73 H73        29.0154   18.0239    1.3458 H         1 UNK         0.0888 
     74 H74        29.3892   19.0626    2.7245 H         1 UNK         0.0888 
     75 H75        28.8826   21.1201    0.0992 H         1 UNK         0.3017 
     76 H76        31.3479   20.9222   -1.2851 H         1 UNK         0.0873 
     77 H77        32.3184   21.9481    0.7466 H         1 UNK         0.0745 
     78 H78        32.3665   23.0677   -0.5693 H         1 UNK         0.0745 
     79 H79        32.0461   22.9893    3.0118 H         1 UNK         0.0705 
     80 H80        30.5541   22.1034    2.7902 H         1 UNK         0.0705 
     81 H81        31.9629   25.3715    3.9041 H         1 UNK         0.1334 
     82 H82        28.6475   26.2726    6.4646 H         1 UNK         0.1417 
     83 H83        28.5227   22.8151    3.9242 H         1 UNK         0.1562 
     84 H84        26.9217   24.5151    6.8011 H         1 UNK         0.0748 
     85 H85        26.9417   23.0727    5.8261 H         1 UNK         0.0748 
     86 H86        26.0302   26.6442    6.2649 H         1 UNK         0.0940 
     87 H87        24.6034   26.8488    5.2906 H         1 UNK         0.0940 
     88 H88        27.4784   27.2554    4.3169 H         1 UNK         0.0703 
     89 H89        25.2343   26.7921    2.7262 H         1 UNK         0.3081 
     90 H90        25.5533   26.7845    0.4691 H         1 UNK         0.0719 
     91 H91        25.5299   29.8336    0.0597 H         1 UNK         0.0809 
     92 H92        24.6964   28.6624   -0.9613 H         1 UNK         0.0809 
     93 H93        24.2111   28.8719    0.7124 H         1 UNK         0.0809 
     94 H94        27.4579   28.5986   -0.8692 H         1 UNK         0.2990 
     95 H95        29.1036   27.6771   -2.1597 H         1 UNK         0.0690 
     96 H96        30.6271   26.7367    0.3357 H         1 UNK         0.0788 
     97 H97        30.0729   28.3726    0.0397 H         1 UNK         0.0788 
     98 H98        31.3138   27.6753   -0.9910 H         1 UNK         0.0788 
     99 H99        30.4641   25.1623   -1.5441 H         1 UNK         0.2993 
    100 H100       29.0422   23.2995   -4.1271 H         1 UNK         0.0949 
    101 H101       31.7314   24.7350   -4.4793 H         1 UNK         0.0767 
    102 H102       31.2477   23.2355   -5.2745 H         1 UNK         0.0767 
    103 H103       30.4112   24.7345   -5.6403 H         1 UNK         0.0767 
    104 H104       31.5306   23.0777   -2.6683 H         1 UNK         0.3013 
    105 H105       24.9266   29.4848    3.5573 H         1 UNK         0.3121 
    106 H106       25.5037   31.3386    5.7578 H         1 UNK         0.0774 
    107 H107       23.7274   32.6968    4.6696 H         1 UNK         0.0815 
    108 H108       23.6759   31.5884    3.3067 H         1 UNK         0.0815 
    109 H109       23.1768   31.0486    4.9110 H         1 UNK         0.0815 
    110 H110       27.0274   30.6904    2.7388 H         1 UNK         0.2987 
    111 H111       27.6174   33.4830    2.0471 H         1 UNK         0.0949 
    112 H112       28.6938   30.8647    0.8593 H         1 UNK         0.0806 
    113 H113       27.2658   31.7199    0.2736 H         1 UNK         0.0806 
    114 H114       28.8505   32.4676    0.1645 H         1 UNK         0.0806 
    115 H115       29.7477   34.3360    1.9776 H         1 UNK         0.3010 
    116 H116       31.6207   33.4265    4.0715 H         1 UNK         0.0829 
    117 H117       32.7775   35.5620    3.5331 H         1 UNK         0.0813 
    118 H118       31.6456   35.8765    2.2249 H         1 UNK         0.0813 
    119 H119       31.0839   35.8471    3.8962 H         1 UNK         0.0813 
    120 H120       31.6951   31.3388    2.6686 H         1 UNK         0.3038 
    121 H121       34.1410   31.3326    1.0819 H         1 UNK         0.0769 
    122 H122       32.9900   30.1387   -0.8361 H         1 UNK         0.0811 
    123 H123       32.4163   31.7903   -0.6792 H         1 UNK         0.0811 
    124 H124       31.4283   30.4561   -0.0913 H         1 UNK         0.0811 
    125 H125       34.8432   29.1419    0.7328 H         1 UNK         0.3204 
    126 H126       35.4314   27.1125    1.2751 H         1 UNK         0.0748 
    127 H127       33.7240   25.4076    1.9936 H         1 UNK         0.0771 
    128 H128       32.5270   26.6882    2.1279 H         1 UNK         0.0771 
    129 H129       33.2488   26.3159    0.5699 H         1 UNK         0.0771 
    130 H130       33.4739   28.3558    3.9878 H         1 UNK         0.2980 
    131 H131       35.2422   27.2140    6.0344 H         1 UNK         0.0545 
    132 H132       37.2672   30.0119    6.9080 H         1 UNK         0.3459 
    133 H133       36.6495   28.4702    7.4410 H         1 UNK         0.3459 
    134 H134       33.8182   28.6076    7.6227 H         1 UNK         0.0616 
    135 H135       32.8843   29.1652    6.2583 H         1 UNK         0.0616 
    136 H136       31.4570   27.7524    4.7937 H         1 UNK         0.0634 
    137 H137       30.4107   27.9032    6.1852 H         1 UNK         0.0634 
@<TRIPOS>BOND
     1    1    2 1    
     2    1   72 1    
     3    1   73 1    
     4    1   74 1    
     5    2    3 2    
     6    2    4 am   BACKBONE|DICT|INTERRES
     7    4    5 1    
     8    4   75 1    
     9    5    6 1    
    10    5   35 1    
    11    5   76 1    
    12    6    7 1    
    13    6   77 1    
    14    6   78 1    
    15    7    8 1    
    16    8    9 1    
    17    8   79 1    
    18    8   80 1    
    19    9   10 ar   
    20    9   14 ar   
    21   10   11 ar   
    22   10   81 1    
    23   11   12 ar   
    24   11   71 1    
    25   12   13 ar   
    26   12   82 1    
    27   13   14 ar   
    28   13   15 1    
    29   14   83 1    
    30   15   16 1    
    31   15   84 1    
    32   15   85 1    
    33   16   17 1    
    34   17   18 1    
    35   17   86 1    
    36   17   87 1    
    37   18   19 1    
    38   18   37 1    
    39   18   88 1    
    40   19   20 am   BACKBONE|DICT|INTERRES
    41   19   89 1    
    42   20   21 2    
    43   20   22 1    
    44   22   23 1    
    45   22   24 1    
    46   22   90 1    
    47   23   91 1    
    48   23   92 1    
    49   23   93 1    
    50   24   25 am   BACKBONE|DICT|INTERRES
    51   24   94 1    
    52   25   26 2    
    53   25   27 1    
    54   27   28 1    
    55   27   29 1    
    56   27   95 1    
    57   28   96 1    
    58   28   97 1    
    59   28   98 1    
    60   29   30 am   BACKBONE|DICT|INTERRES
    61   29   99 1    
    62   30   31 2    
    63   30   32 1    
    64   32   33 1    
    65   32   34 1    
    66   32  100 1    
    67   33  101 1    
    68   33  102 1    
    69   33  103 1    
    70   34   35 am   BACKBONE|DICT|INTERRES
    71   34  104 1    
    72   35   36 2    
    73   37   38 2    
    74   37   39 am   BACKBONE|DICT|INTERRES
    75   39   40 1    
    76   39  105 1    
    77   40   41 1    
    78   40   42 1    
    79   40  106 1    
    80   41  107 1    
    81   41  108 1    
    82   41  109 1    
    83   42   43 2    
    84   42   44 am   BACKBONE|DICT|INTERRES
    85   44   45 1    
    86   44  110 1    
    87   45   46 1    
    88   45   47 1    
    89   45  111 1    
    90   46  112 1    
    91   46  113 1    
    92   46  114 1    
    93   47   48 2    
    94   47   49 am   BACKBONE|DICT|INTERRES
    95   49   50 1    
    96   49  115 1    
    97   50   51 1    
    98   50   52 1    
    99   50  116 1    
   100   51  117 1    
   101   51  118 1    
   102   51  119 1    
   103   52   53 2    
   104   52   54 am   BACKBONE|DICT|INTERRES
   105   54   55 1    
   106   54  120 1    
   107   55   56 1    
   108   55   57 1    
   109   55  121 1    
   110   56  122 1    
   111   56  123 1    
   112   56  124 1    
   113   57   58 2    
   114   57   59 am   BACKBONE|DICT|INTERRES
   115   59   60 1    
   116   59  125 1    
   117   60   61 1    
   118   60   62 1    
   119   60  126 1    
   120   61  127 1    
   121   61  128 1    
   122   61  129 1    
   123   62   63 2    
   124   62   64 am   BACKBONE|DICT|INTERRES
   125   64   65 1    
   126   64  130 1    
   127   65   66 1    
   128   65   69 1    
   129   65  131 1    
   130   66   67 am   BACKBONE|DICT|INTERRES
   131   66   68 2    
   132   67  132 1    
   133   67  133 1    
   134   69   70 1    
   135   69  134 1    
   136   69  135 1    
   137   70   71 1    
   138   71  136 1    
   139   71  137 1    
@<TRIPOS>SUBSTRUCTURE
     1 UNK         1 GROUP             0       ****    0 ROOT    
