@<TRIPOS>MOLECULE
3R136
137   139    1
SMALL
USER_CHARGES


@<TRIPOS>ATOM
      1 CA         26.0475   25.9799    4.0842 C.3       0 UNK        -0.1979 
      2 C          26.8329   25.1655    3.0689 C.2       0 UNK         0.4864 
      3 O          27.5110   25.7454    2.2203 O.2       0 UNK        -0.5359 
      4 N          26.7497   23.8304    3.1547 N.am      1 UNK        -0.4318 
      5 CA         27.3720   22.8675    2.2351 C.3       1 UNK         0.0824 
      6 C6         28.9245   22.9522    2.2313 C.3       12 UNK        -0.0944 
      7 S7         29.7166   21.3736    1.7657 S.3       12 UNK        -0.2672 
      8 C8         31.2752   21.4327    2.7146 C.3       12 UNK         0.0333 
      9 C9         32.0777   22.7086    2.4770 C.ar      12 UNK        -0.0807 
     10 C10        32.5532   23.4447    3.5672 C.ar      12 UNK        -0.0894 
     11 C11        33.2572   24.6384    3.3746 C.ar      12 UNK        -0.0804 
     12 C12        33.4970   25.0775    2.0690 C.ar      12 UNK        -0.0824 
     13 C13        33.0266   24.3580    0.9692 C.ar      12 UNK        -0.0762 
     14 C14        32.3316   23.1644    1.1788 C.ar      12 UNK        -0.0782 
     15 C15        33.2475   24.8853   -0.4438 C.3       12 UNK         0.0230 
     16 S16        32.6248   26.5879   -0.6704 S.3       12 UNK        -0.2608 
     17 C17        30.8457   26.3931   -0.3101 C.3       12 UNK        -0.0989 
     18 CA         30.2034   27.6519    0.3279 C.3       5 UNK         0.0716 
     19 N          28.7468   27.5985    0.1922 N.am      5 UNK        -0.4135 
     20 C          27.8658   28.5434    0.5460 C.2       4 UNK         0.5031 
     21 O          28.1841   29.6023    1.0884 O.2       4 UNK        -0.5229 
     22 CA         26.3741   28.2264    0.3155 C.3       4 UNK         0.0329 
     23 CB         25.5645   29.4721   -0.1059 C.3       4 UNK        -0.2001 
     24 N          26.1491   27.0923   -0.5948 N.am      4 UNK        -0.4303 
     25 C          26.3918   27.0359   -1.9147 C.2       3 UNK         0.5044 
     26 O          26.7856   27.9946   -2.5793 O.2       3 UNK        -0.5152 
     27 CA         26.2191   25.6723   -2.6132 C.3       3 UNK         0.0319 
     28 CB         27.5096   25.2685   -3.3488 C.3       3 UNK        -0.2001 
     29 N          25.8541   24.5846   -1.7021 N.am      3 UNK        -0.4354 
     30 C          24.6199   24.2886   -1.2834 C.2       2 UNK         0.4964 
     31 O          23.6211   24.9360   -1.5965 O.2       2 UNK        -0.5047 
     32 CA         24.4702   23.0718   -0.3511 C.3       2 UNK         0.0288 
     33 CB         24.5356   21.7550   -1.1502 C.3       2 UNK        -0.2113 
     34 N          25.3878   23.0440    0.8011 N.am      2 UNK        -0.4145 
     35 C          26.7272   22.9272    0.8276 C.2       1 UNK         0.5006 
     36 O          27.4278   22.8847   -0.1862 O.2       1 UNK        -0.5103 
     37 C          30.6615   27.8733    1.7870 C.2       5 UNK         0.5055 
     38 O          31.6228   28.6115    2.0088 O.2       5 UNK        -0.5220 
     39 N          29.9447   27.2728    2.7485 N.am      6 UNK        -0.4450 
     40 CA         30.1980   27.4238    4.1842 C.3       6 UNK         0.0367 
     41 CB         30.0398   26.0528    4.8643 C.3       6 UNK        -0.1929 
     42 C          29.2843   28.4692    4.8512 C.2       6 UNK         0.5070 
     43 O          29.3951   28.6609    6.0627 O.2       6 UNK        -0.5237 
     44 N          28.3829   29.1016    4.0861 N.am      7 UNK        -0.4739 
     45 CA         27.4570   30.1262    4.5782 C.3       7 UNK         0.0276 
     46 CB         26.0454   29.8580    4.0324 C.3       7 UNK        -0.1927 
     47 C          27.9211   31.5375    4.1946 C.2       7 UNK         0.5013 
     48 O          27.8098   32.4493    5.0148 O.2       7 UNK        -0.5193 
     49 N          28.4275   31.6994    2.9635 N.am      8 UNK        -0.4253 
     50 CA         28.9049   32.9731    2.4179 C.3       8 UNK         0.0242 
     51 CB         29.1014   32.8241    0.9003 C.3       8 UNK        -0.2000 
     52 C          30.1980   33.4848    3.0767 C.2       8 UNK         0.4948 
     53 O          30.4189   34.6965    3.1051 O.2       8 UNK        -0.5275 
     54 N          31.0231   32.5654    3.5873 N.am      9 UNK        -0.4246 
     55 CA         32.2921   32.8152    4.2616 C.3       9 UNK         0.0261 
     56 CB         33.3724   33.2020    3.2299 C.3       9 UNK        -0.1959 
     57 C          32.6852   31.5415    5.0186 C.2       9 UNK         0.5033 
     58 O          32.0449   30.5003    4.8418 O.2       9 UNK        -0.5390 
     59 N          33.7588   31.6238    5.8154 N.am      10 UNK        -0.4215 
     60 CA         34.4054   30.4850    6.4761 C.3       10 UNK         0.0240 
     61 CB         35.3058   31.0064    7.6118 C.3       10 UNK        -0.1982 
     62 C          35.1781   29.6336    5.4483 C.2       10 UNK         0.4970 
     63 O          36.4079   29.6859    5.4020 O.2       10 UNK        -0.4916 
     64 N          34.4124   28.9196    4.6168 N.am      11 UNK        -0.4279 
     65 CA         34.8156   28.2341    3.3852 C.3       11 UNK         0.1003 
     66 C          35.1968   29.2592    2.2849 C.2       11 UNK         0.5709 
     67 N          34.2157   29.7522    1.5417 N.am      11 UNK        -0.7358 
     68 O          36.3612   29.6034    2.0955 O.2       11 UNK        -0.4999 
     69 C69        35.8853   27.1153    3.5734 C.3       12 UNK        -0.0954 
     70 S70        35.4771   25.7413    4.7154 S.3       12 UNK        -0.2268 
     71 C71        33.6765   25.4751    4.5821 C.3       12 UNK         0.0203 
     72 H72        26.7116   26.6558    4.6208 H         1 UNK         0.0888 
     73 H73        25.2903   26.5757    3.5758 H         1 UNK         0.0888 
     74 H74        25.5466   25.3470    4.8164 H         1 UNK         0.0888 
     75 H75        26.1941   23.4216    3.8940 H         1 UNK         0.3017 
     76 H76        27.1009   21.8886    2.6343 H         1 UNK         0.0873 
     77 H77        29.2762   23.2155    3.2301 H         1 UNK         0.0745 
     78 H78        29.2814   23.7466    1.5734 H         1 UNK         0.0745 
     79 H79        31.0375   21.3167    3.7732 H         1 UNK         0.0705 
     80 H80        31.8885   20.5736    2.4398 H         1 UNK         0.0705 
     81 H81        32.3488   23.1009    4.5721 H         1 UNK         0.1334 
     82 H82        34.0286   25.9946    1.8840 H         1 UNK         0.1417 
     83 H83        31.9607   22.6010    0.3333 H         1 UNK         0.1562 
     84 H84        32.7705   24.2375   -1.1810 H         1 UNK         0.0748 
     85 H85        34.3158   24.8685   -0.6635 H         1 UNK         0.0748 
     86 H86        30.6730   25.5181    0.3187 H         1 UNK         0.0940 
     87 H87        30.3629   26.1705   -1.2631 H         1 UNK         0.0940 
     88 H88        30.5262   28.5259   -0.2419 H         1 UNK         0.0703 
     89 H89        28.3660   26.7353   -0.1638 H         1 UNK         0.3081 
     90 H90        25.9907   27.9049    1.2846 H         1 UNK         0.0719 
     91 H91        24.5114   29.2310   -0.2490 H         1 UNK         0.0809 
     92 H92        25.6163   30.2531    0.6528 H         1 UNK         0.0809 
     93 H93        25.9388   29.9084   -1.0320 H         1 UNK         0.0809 
     94 H94        25.8425   26.2382   -0.1508 H         1 UNK         0.2990 
     95 H95        25.4271   25.7910   -3.3556 H         1 UNK         0.0690 
     96 H96        28.3443   25.1406   -2.6584 H         1 UNK         0.0788 
     97 H97        27.8020   26.0233   -4.0801 H         1 UNK         0.0788 
     98 H98        27.3786   24.3320   -3.8913 H         1 UNK         0.0788 
     99 H99        26.6092   23.9943   -1.3550 H         1 UNK         0.2993 
    100 H100       23.4681   23.1383    0.0765 H         1 UNK         0.0949 
    101 H101       25.5116   21.6031   -1.6122 H         1 UNK         0.0767 
    102 H102       24.3302   20.8950   -0.5128 H         1 UNK         0.0767 
    103 H103       23.7946   21.7483   -1.9509 H         1 UNK         0.0767 
    104 H104       24.9278   23.1146    1.6982 H         1 UNK         0.3013 
    105 H105       29.1414   26.7050    2.4836 H         1 UNK         0.3121 
    106 H106       31.2240   27.7607    4.3417 H         1 UNK         0.0774 
    107 H107       28.9992   25.7364    4.9095 H         1 UNK         0.0815 
    108 H108       30.4123   26.0826    5.8889 H         1 UNK         0.0815 
    109 H109       30.5966   25.2799    4.3382 H         1 UNK         0.0815 
    110 H110       28.3893   28.9309    3.0882 H         1 UNK         0.2987 
    111 H111       27.3979   30.0913    5.6685 H         1 UNK         0.0949 
    112 H112       26.0272   29.8394    2.9441 H         1 UNK         0.0806 
    113 H113       25.6552   28.9078    4.3937 H         1 UNK         0.0806 
    114 H114       25.3488   30.6327    4.3560 H         1 UNK         0.0806 
    115 H115       28.4342   30.9061    2.3245 H         1 UNK         0.3010 
    116 H116       28.1307   33.7237    2.5907 H         1 UNK         0.0829 
    117 H117       28.1719   32.5400    0.4063 H         1 UNK         0.0813 
    118 H118       29.4335   33.7622    0.4536 H         1 UNK         0.0813 
    119 H119       29.8490   32.0652    0.6647 H         1 UNK         0.0813 
    120 H120       30.7582   31.5868    3.5717 H         1 UNK         0.3038 
    121 H121       32.1590   33.6211    4.9861 H         1 UNK         0.0769 
    122 H122       33.5231   32.4109    2.4946 H         1 UNK         0.0811 
    123 H123       34.3342   33.3907    3.7076 H         1 UNK         0.0811 
    124 H124       33.1042   34.1100    2.6899 H         1 UNK         0.0811 
    125 H125       34.2373   32.5104    5.8879 H         1 UNK         0.3204 
    126 H126       33.6357   29.8523    6.9243 H         1 UNK         0.0748 
    127 H127       36.0849   31.6737    7.2406 H         1 UNK         0.0771 
    128 H128       34.7266   31.5502    8.3585 H         1 UNK         0.0771 
    129 H129       35.8008   30.1812    8.1257 H         1 UNK         0.0771 
    130 H130       33.4127   29.0795    4.6992 H         1 UNK         0.2980 
    131 H131       33.9015   27.7666    3.0320 H         1 UNK         0.0545 
    132 H132       34.4286   30.4111    0.8110 H         1 UNK         0.3459 
    133 H133       33.2570   29.4402    1.6870 H         1 UNK         0.3459 
    134 H134       36.1186   26.6643    2.6078 H         1 UNK         0.0616 
    135 H135       36.8255   27.5491    3.9161 H         1 UNK         0.0616 
    136 H136       33.1368   26.4188    4.5903 H         1 UNK         0.0634 
    137 H137       33.3674   24.9706    5.4986 H         1 UNK         0.0634 
@<TRIPOS>BOND
     1    1    2 1    
     2    1   72 1    
     3    1   73 1    
     4    1   74 1    
     5    2    3 2    
     6    2    4 am   BACKBONE|DICT|INTERRES
     7    4    5 1    
     8    4   75 1    
     9    5    6 1    
    10    5   35 1    
    11    5   76 1    
    12    6    7 1    
    13    6   77 1    
    14    6   78 1    
    15    7    8 1    
    16    8    9 1    
    17    8   79 1    
    18    8   80 1    
    19    9   10 ar   
    20    9   14 ar   
    21   10   11 ar   
    22   10   81 1    
    23   11   12 ar   
    24   11   71 1    
    25   12   13 ar   
    26   12   82 1    
    27   13   14 ar   
    28   13   15 1    
    29   14   83 1    
    30   15   16 1    
    31   15   84 1    
    32   15   85 1    
    33   16   17 1    
    34   17   18 1    
    35   17   86 1    
    36   17   87 1    
    37   18   19 1    
    38   18   37 1    
    39   18   88 1    
    40   19   20 am   BACKBONE|DICT|INTERRES
    41   19   89 1    
    42   20   21 2    
    43   20   22 1    
    44   22   23 1    
    45   22   24 1    
    46   22   90 1    
    47   23   91 1    
    48   23   92 1    
    49   23   93 1    
    50   24   25 am   BACKBONE|DICT|INTERRES
    51   24   94 1    
    52   25   26 2    
    53   25   27 1    
    54   27   28 1    
    55   27   29 1    
    56   27   95 1    
    57   28   96 1    
    58   28   97 1    
    59   28   98 1    
    60   29   30 am   BACKBONE|DICT|INTERRES
    61   29   99 1    
    62   30   31 2    
    63   30   32 1    
    64   32   33 1    
    65   32   34 1    
    66   32  100 1    
    67   33  101 1    
    68   33  102 1    
    69   33  103 1    
    70   34   35 am   BACKBONE|DICT|INTERRES
    71   34  104 1    
    72   35   36 2    
    73   37   38 2    
    74   37   39 am   BACKBONE|DICT|INTERRES
    75   39   40 1    
    76   39  105 1    
    77   40   41 1    
    78   40   42 1    
    79   40  106 1    
    80   41  107 1    
    81   41  108 1    
    82   41  109 1    
    83   42   43 2    
    84   42   44 am   BACKBONE|DICT|INTERRES
    85   44   45 1    
    86   44  110 1    
    87   45   46 1    
    88   45   47 1    
    89   45  111 1    
    90   46  112 1    
    91   46  113 1    
    92   46  114 1    
    93   47   48 2    
    94   47   49 am   BACKBONE|DICT|INTERRES
    95   49   50 1    
    96   49  115 1    
    97   50   51 1    
    98   50   52 1    
    99   50  116 1    
   100   51  117 1    
   101   51  118 1    
   102   51  119 1    
   103   52   53 2    
   104   52   54 am   BACKBONE|DICT|INTERRES
   105   54   55 1    
   106   54  120 1    
   107   55   56 1    
   108   55   57 1    
   109   55  121 1    
   110   56  122 1    
   111   56  123 1    
   112   56  124 1    
   113   57   58 2    
   114   57   59 am   BACKBONE|DICT|INTERRES
   115   59   60 1    
   116   59  125 1    
   117   60   61 1    
   118   60   62 1    
   119   60  126 1    
   120   61  127 1    
   121   61  128 1    
   122   61  129 1    
   123   62   63 2    
   124   62   64 am   BACKBONE|DICT|INTERRES
   125   64   65 1    
   126   64  130 1    
   127   65   66 1    
   128   65   69 1    
   129   65  131 1    
   130   66   67 am   BACKBONE|DICT|INTERRES
   131   66   68 2    
   132   67  132 1    
   133   67  133 1    
   134   69   70 1    
   135   69  134 1    
   136   69  135 1    
   137   70   71 1    
   138   71  136 1    
   139   71  137 1    
@<TRIPOS>SUBSTRUCTURE
     1 UNK         1 GROUP             0       ****    0 ROOT    
