@<TRIPOS>MOLECULE
3R136
137   139    1
SMALL
USER_CHARGES


@<TRIPOS>ATOM
      1 CA         30.3270   17.2998   -1.6785 C.3       0 UNK        -0.1979 
      2 C          30.5265   18.4564   -0.7100 C.2       0 UNK         0.4864 
      3 O          31.5798   18.5472   -0.0784 O.2       0 UNK        -0.5359 
      4 N          29.5199   19.3332   -0.5854 N.am      1 UNK        -0.4318 
      5 CA         29.5370   20.5277    0.2665 C.3       1 UNK         0.0824 
      6 C6         28.1044   21.1126    0.4261 C.3       12 UNK        -0.0944 
      7 S7         27.9807   22.7690    1.1896 S.3       12 UNK        -0.2672 
      8 C8         27.8991   22.3397    2.9521 C.3       12 UNK         0.0333 
      9 C9         27.6210   23.5771    3.7892 C.ar      12 UNK        -0.0807 
     10 C10        28.6578   24.2440    4.4487 C.ar      12 UNK        -0.0894 
     11 C11        28.3913   25.3840    5.2143 C.ar      12 UNK        -0.0804 
     12 C12        27.0788   25.8555    5.3177 C.ar      12 UNK        -0.0824 
     13 C13        26.0387   25.2090    4.6428 C.ar      12 UNK        -0.0762 
     14 C14        26.3152   24.0612    3.8947 C.ar      12 UNK        -0.0782 
     15 C15        24.6159   25.7459    4.7064 C.3       12 UNK         0.0230 
     16 S16        24.0176   26.2518    3.0602 S.3       12 UNK        -0.2608 
     17 C17        24.7111   27.9322    2.8813 C.3       12 UNK        -0.0989 
     18 CA         26.2257   27.9934    2.5253 C.3       5 UNK         0.0716 
     19 N          26.6352   27.0898    1.4450 N.am      5 UNK        -0.4135 
     20 C          26.2533   27.1345    0.1620 C.2       4 UNK         0.5031 
     21 O          25.4318   27.9392   -0.2815 O.2       4 UNK        -0.5229 
     22 CA         26.9310   26.1207   -0.7878 C.3       4 UNK         0.0329 
     23 CB         26.9206   26.5967   -2.2555 C.3       4 UNK        -0.2001 
     24 N          28.2988   25.7402   -0.3974 N.am      4 UNK        -0.4303 
     25 C          29.3375   26.5597   -0.1668 C.2       3 UNK         0.5044 
     26 O          29.2579   27.7871   -0.1741 O.2       3 UNK        -0.5152 
     27 CA         30.6885   25.9056    0.1648 C.3       3 UNK         0.0319 
     28 CB         30.8324   25.7363    1.6854 C.3       3 UNK        -0.2001 
     29 N          30.8977   24.6082   -0.4802 N.am      3 UNK        -0.4354 
     30 C          31.0337   24.3924   -1.7951 C.2       2 UNK         0.4964 
     31 O          30.9979   25.2890   -2.6379 O.2       2 UNK        -0.5047 
     32 CA         31.2390   22.9362   -2.2649 C.3       2 UNK         0.0288 
     33 CB         32.7375   22.5773   -2.3090 C.3       2 UNK        -0.2113 
     34 N          30.4664   21.9224   -1.5261 N.am      2 UNK        -0.4145 
     35 C          30.5658   21.5620   -0.2361 C.2       1 UNK         0.5006 
     36 O          31.3897   22.0306    0.5517 O.2       1 UNK        -0.5103 
     37 C          26.7144   29.4506    2.3424 C.2       5 UNK         0.5055 
     38 O          26.1872   30.3435    3.0108 O.2       5 UNK        -0.5220 
     39 N          27.7235   29.6931    1.4896 N.am      6 UNK        -0.4450 
     40 CA         28.3266   31.0114    1.2680 C.3       6 UNK         0.0367 
     41 CB         28.9675   31.0518   -0.1319 C.3       6 UNK        -0.1929 
     42 C          29.3323   31.3518    2.3827 C.2       6 UNK         0.5070 
     43 O          30.5253   31.4996    2.1171 O.2       6 UNK        -0.5237 
     44 N          28.8400   31.4407    3.6235 N.am      7 UNK        -0.4739 
     45 CA         29.6298   31.7032    4.8272 C.3       7 UNK         0.0276 
     46 CB         28.7083   31.6674    6.0557 C.3       7 UNK        -0.1927 
     47 C          30.4024   33.0328    4.7572 C.2       7 UNK         0.5013 
     48 O          29.8670   34.0244    4.2578 O.2       7 UNK        -0.5193 
     49 N          31.6475   33.0031    5.2478 N.am      8 UNK        -0.4253 
     50 CA         32.6783   34.0509    5.2409 C.3       8 UNK         0.0242 
     51 CB         32.1558   35.4310    5.6897 C.3       8 UNK        -0.2000 
     52 C          33.4612   34.1289    3.9190 C.2       8 UNK         0.4948 
     53 O          34.6404   34.4833    3.9580 O.2       8 UNK        -0.5275 
     54 N          32.8394   33.7598    2.7897 N.am      9 UNK        -0.4246 
     55 CA         33.5404   33.4738    1.5342 C.3       9 UNK         0.0261 
     56 CB         32.5985   33.6875    0.3369 C.3       9 UNK        -0.1959 
     57 C          34.0977   32.0409    1.5689 C.2       9 UNK         0.5033 
     58 O          35.2817   31.8356    1.2975 O.2       9 UNK        -0.5390 
     59 N          33.2352   31.0948    1.9525 N.am      10 UNK        -0.4215 
     60 CA         33.5424   29.7126    2.2994 C.3       10 UNK         0.0240 
     61 CB         32.7591   28.7908    1.3452 C.3       10 UNK        -0.1982 
     62 C          33.1723   29.4783    3.7778 C.2       10 UNK         0.4970 
     63 O          32.9574   30.4409    4.5215 O.2       10 UNK        -0.4916 
     64 N          33.1147   28.2027    4.1817 N.am      11 UNK        -0.4279 
     65 CA         32.8564   27.7424    5.5583 C.3       11 UNK         0.1003 
     66 C          34.0156   28.1041    6.5399 C.2       11 UNK         0.5709 
     67 N          33.7892   28.0658    7.8469 N.am      11 UNK        -0.7358 
     68 O          35.1456   28.3681    6.1310 O.2       11 UNK        -0.4999 
     69 C69        31.4392   28.1306    6.0862 C.3       12 UNK        -0.0954 
     70 S70        30.0840   27.5603    5.0047 S.3       12 UNK        -0.2268 
     71 C71        29.5175   26.1048    5.9368 C.3       12 UNK         0.0203 
     72 H72        30.4080   16.3500   -1.1504 H         1 UNK         0.0888 
     73 H73        29.3513   17.3357   -2.1629 H         1 UNK         0.0888 
     74 H74        31.0915   17.3246   -2.4546 H         1 UNK         0.0888 
     75 H75        28.6769   19.1868   -1.1226 H         1 UNK         0.3017 
     76 H76        29.8717   20.2150    1.2582 H         1 UNK         0.0873 
     77 H77        27.6304   21.1948   -0.5537 H         1 UNK         0.0745 
     78 H78        27.4826   20.4150    0.9895 H         1 UNK         0.0745 
     79 H79        28.8369   21.8712    3.2549 H         1 UNK         0.0705 
     80 H80        27.1126   21.6014    3.1161 H         1 UNK         0.0705 
     81 H81        29.6721   23.8779    4.3640 H         1 UNK         0.1334 
     82 H82        26.8745   26.7409    5.9045 H         1 UNK         0.1417 
     83 H83        25.5132   23.5571    3.3721 H         1 UNK         0.1562 
     84 H84        24.5351   26.5814    5.4033 H         1 UNK         0.0748 
     85 H85        23.9623   24.9617    5.0909 H         1 UNK         0.0748 
     86 H86        24.5138   28.4796    3.8050 H         1 UNK         0.0940 
     87 H87        24.1295   28.4395    2.1092 H         1 UNK         0.0940 
     88 H88        26.7772   27.6486    3.3967 H         1 UNK         0.0703 
     89 H89        27.3017   26.3784    1.7079 H         1 UNK         0.3081 
     90 H90        26.3334   25.2098   -0.7288 H         1 UNK         0.0719 
     91 H91        27.4602   27.5369   -2.3756 H         1 UNK         0.0809 
     92 H92        27.3807   25.8604   -2.9146 H         1 UNK         0.0809 
     93 H93        25.9021   26.7565   -2.6116 H         1 UNK         0.0809 
     94 H94        28.4634   24.7467   -0.3003 H         1 UNK         0.2990 
     95 H95        31.4715   26.5803   -0.1860 H         1 UNK         0.0690 
     96 H96        31.8261   25.3786    1.9545 H         1 UNK         0.0788 
     97 H97        30.1040   25.0280    2.0802 H         1 UNK         0.0788 
     98 H98        30.6768   26.6838    2.2019 H         1 UNK         0.0788 
     99 H99        30.9965   23.7997    0.1288 H         1 UNK         0.2993 
    100 H100       30.8662   22.8943   -3.2898 H         1 UNK         0.0949 
    101 H101       33.1980   22.6194   -1.3215 H         1 UNK         0.0767 
    102 H102       32.8930   21.5751   -2.7087 H         1 UNK         0.0767 
    103 H103       33.2842   23.2705   -2.9497 H         1 UNK         0.0767 
    104 H104       29.7352   21.4791   -2.0647 H         1 UNK         0.3013 
    105 H105       28.1459   28.9217    0.9789 H         1 UNK         0.3121 
    106 H106       27.5423   31.7710    1.2909 H         1 UNK         0.0774 
    107 H107       28.2475   30.7912   -0.9076 H         1 UNK         0.0815 
    108 H108       29.3433   32.0504   -0.3575 H         1 UNK         0.0815 
    109 H109       29.8103   30.3642   -0.2122 H         1 UNK         0.0815 
    110 H110       27.8437   31.2920    3.7422 H         1 UNK         0.2987 
    111 H111       30.3480   30.8867    4.9114 H         1 UNK         0.0949 
    112 H112       28.2124   30.7010    6.1508 H         1 UNK         0.0806 
    113 H113       29.2742   31.8315    6.9738 H         1 UNK         0.0806 
    114 H114       27.9386   32.4385    6.0033 H         1 UNK         0.0806 
    115 H115       32.0015   32.0924    5.5224 H         1 UNK         0.3010 
    116 H116       33.3996   33.7280    5.9935 H         1 UNK         0.0829 
    117 H117       31.5997   35.3629    6.6247 H         1 UNK         0.0813 
    118 H118       32.9851   36.1199    5.8544 H         1 UNK         0.0813 
    119 H119       31.5077   35.8885    4.9419 H         1 UNK         0.0813 
    120 H120       31.8671   33.4851    2.8451 H         1 UNK         0.3038 
    121 H121       34.3809   34.1625    1.4227 H         1 UNK         0.0769 
    122 H122       33.1176   33.4936   -0.6026 H         1 UNK         0.0811 
    123 H123       32.2349   34.7144    0.2998 H         1 UNK         0.0811 
    124 H124       31.7314   33.0283    0.3692 H         1 UNK         0.0811 
    125 H125       32.2658   31.3625    2.1312 H         1 UNK         0.3204 
    126 H126       34.6115   29.5209    2.1899 H         1 UNK         0.0748 
    127 H127       33.0450   27.7470    1.4726 H         1 UNK         0.0771 
    128 H128       31.6822   28.8671    1.5058 H         1 UNK         0.0771 
    129 H129       32.9538   29.0460    0.3033 H         1 UNK         0.0771 
    130 H130       33.3352   27.4762    3.5182 H         1 UNK         0.2980 
    131 H131       32.8867   26.6542    5.4977 H         1 UNK         0.0545 
    132 H132       34.5453   28.2793    8.4784 H         1 UNK         0.3459 
    133 H133       32.8815   27.8303    8.2145 H         1 UNK         0.3459 
    134 H134       31.2708   27.7162    7.0806 H         1 UNK         0.0616 
    135 H135       31.3545   29.2106    6.2043 H         1 UNK         0.0616 
    136 H136       30.3600   25.4298    6.0958 H         1 UNK         0.0634 
    137 H137       29.1782   26.4172    6.9257 H         1 UNK         0.0634 
@<TRIPOS>BOND
     1    1    2 1    
     2    1   72 1    
     3    1   73 1    
     4    1   74 1    
     5    2    3 2    
     6    2    4 am   BACKBONE|DICT|INTERRES
     7    4    5 1    
     8    4   75 1    
     9    5    6 1    
    10    5   35 1    
    11    5   76 1    
    12    6    7 1    
    13    6   77 1    
    14    6   78 1    
    15    7    8 1    
    16    8    9 1    
    17    8   79 1    
    18    8   80 1    
    19    9   10 ar   
    20    9   14 ar   
    21   10   11 ar   
    22   10   81 1    
    23   11   12 ar   
    24   11   71 1    
    25   12   13 ar   
    26   12   82 1    
    27   13   14 ar   
    28   13   15 1    
    29   14   83 1    
    30   15   16 1    
    31   15   84 1    
    32   15   85 1    
    33   16   17 1    
    34   17   18 1    
    35   17   86 1    
    36   17   87 1    
    37   18   19 1    
    38   18   37 1    
    39   18   88 1    
    40   19   20 am   BACKBONE|DICT|INTERRES
    41   19   89 1    
    42   20   21 2    
    43   20   22 1    
    44   22   23 1    
    45   22   24 1    
    46   22   90 1    
    47   23   91 1    
    48   23   92 1    
    49   23   93 1    
    50   24   25 am   BACKBONE|DICT|INTERRES
    51   24   94 1    
    52   25   26 2    
    53   25   27 1    
    54   27   28 1    
    55   27   29 1    
    56   27   95 1    
    57   28   96 1    
    58   28   97 1    
    59   28   98 1    
    60   29   30 am   BACKBONE|DICT|INTERRES
    61   29   99 1    
    62   30   31 2    
    63   30   32 1    
    64   32   33 1    
    65   32   34 1    
    66   32  100 1    
    67   33  101 1    
    68   33  102 1    
    69   33  103 1    
    70   34   35 am   BACKBONE|DICT|INTERRES
    71   34  104 1    
    72   35   36 2    
    73   37   38 2    
    74   37   39 am   BACKBONE|DICT|INTERRES
    75   39   40 1    
    76   39  105 1    
    77   40   41 1    
    78   40   42 1    
    79   40  106 1    
    80   41  107 1    
    81   41  108 1    
    82   41  109 1    
    83   42   43 2    
    84   42   44 am   BACKBONE|DICT|INTERRES
    85   44   45 1    
    86   44  110 1    
    87   45   46 1    
    88   45   47 1    
    89   45  111 1    
    90   46  112 1    
    91   46  113 1    
    92   46  114 1    
    93   47   48 2    
    94   47   49 am   BACKBONE|DICT|INTERRES
    95   49   50 1    
    96   49  115 1    
    97   50   51 1    
    98   50   52 1    
    99   50  116 1    
   100   51  117 1    
   101   51  118 1    
   102   51  119 1    
   103   52   53 2    
   104   52   54 am   BACKBONE|DICT|INTERRES
   105   54   55 1    
   106   54  120 1    
   107   55   56 1    
   108   55   57 1    
   109   55  121 1    
   110   56  122 1    
   111   56  123 1    
   112   56  124 1    
   113   57   58 2    
   114   57   59 am   BACKBONE|DICT|INTERRES
   115   59   60 1    
   116   59  125 1    
   117   60   61 1    
   118   60   62 1    
   119   60  126 1    
   120   61  127 1    
   121   61  128 1    
   122   61  129 1    
   123   62   63 2    
   124   62   64 am   BACKBONE|DICT|INTERRES
   125   64   65 1    
   126   64  130 1    
   127   65   66 1    
   128   65   69 1    
   129   65  131 1    
   130   66   67 am   BACKBONE|DICT|INTERRES
   131   66   68 2    
   132   67  132 1    
   133   67  133 1    
   134   69   70 1    
   135   69  134 1    
   136   69  135 1    
   137   70   71 1    
   138   71  136 1    
   139   71  137 1    
@<TRIPOS>SUBSTRUCTURE
     1 UNK         1 GROUP             0       ****    0 ROOT    
