@<TRIPOS>MOLECULE
3R136
137   139    1
SMALL
USER_CHARGES


@<TRIPOS>ATOM
      1 CA         33.6958   25.4174   -1.5002 C.3       0 UNK        -0.1979 
      2 C          32.4020   26.1969   -1.3189 C.2       0 UNK         0.4864 
      3 O          32.3702   27.3994   -1.5848 O.2       0 UNK        -0.5359 
      4 N          31.3415   25.5224   -0.8597 N.am      1 UNK        -0.4318 
      5 CA         30.0073   26.0938   -0.6816 C.3       1 UNK         0.0824 
      6 C6         29.2569   25.4669    0.5239 C.3       12 UNK        -0.0944 
      7 S7         28.9367   23.6665    0.4304 S.3       12 UNK        -0.2672 
      8 C8         30.4393   22.9134    1.1473 C.3       12 UNK         0.0333 
      9 C9         30.7243   23.4102    2.5558 C.ar      12 UNK        -0.0807 
     10 C10        31.7551   24.3264    2.7874 C.ar      12 UNK        -0.0894 
     11 C11        31.9940   24.8255    4.0716 C.ar      12 UNK        -0.0804 
     12 C12        31.1688   24.4089    5.1247 C.ar      12 UNK        -0.0824 
     13 C13        30.1471   23.4786    4.9093 C.ar      12 UNK        -0.0762 
     14 C14        29.9445   22.9659    3.6251 C.ar      12 UNK        -0.0782 
     15 C15        29.2532   23.0404    6.0628 C.3       12 UNK         0.0230 
     16 S16        27.4873   23.3718    5.7467 S.3       12 UNK        -0.2608 
     17 C17        27.4868   25.1706    5.4240 C.3       12 UNK        -0.0989 
     18 CA         27.3628   25.5085    3.9087 C.3       5 UNK         0.0716 
     19 N          26.2061   24.8861    3.2504 N.am      5 UNK        -0.4135 
     20 C          24.9142   25.0841    3.5463 C.2       4 UNK         0.5031 
     21 O          24.5249   25.8267    4.4497 O.2       4 UNK        -0.5229 
     22 CA         23.8836   24.3413    2.6641 C.3       4 UNK         0.0329 
     23 CB         22.4829   24.9855    2.7416 C.3       4 UNK        -0.2001 
     24 N          24.2679   24.1756    1.2505 N.am      4 UNK        -0.4303 
     25 C          24.6840   25.1376    0.4145 C.2       3 UNK         0.5044 
     26 O          24.9539   26.2876    0.7690 O.2       3 UNK        -0.5152 
     27 CA         24.8120   24.7647   -1.0671 C.3       3 UNK         0.0319 
     28 CB         23.4272   24.7939   -1.7451 C.3       3 UNK        -0.2001 
     29 N          25.7133   25.7395   -1.6716 N.am      3 UNK        -0.4354 
     30 C          26.2013   25.7588   -2.9162 C.2       2 UNK         0.4964 
     31 O          25.9139   24.9438   -3.7932 O.2       2 UNK        -0.5047 
     32 CA         27.2257   26.8685   -3.2060 C.3       2 UNK         0.0288 
     33 CB         26.5389   28.2384   -3.3366 C.3       2 UNK        -0.2113 
     34 N          28.2402   26.9258   -2.1511 N.am      2 UNK        -0.4145 
     35 C          29.1974   26.0032   -1.9870 C.2       1 UNK         0.5006 
     36 O          29.4255   25.0981   -2.7955 O.2       1 UNK        -0.5103 
     37 C          27.5013   27.0250    3.6285 C.2       5 UNK         0.5055 
     38 O          28.2705   27.6920    4.3230 O.2       5 UNK        -0.5220 
     39 N          26.8048   27.5559    2.6101 N.am      6 UNK        -0.4450 
     40 CA         26.9622   28.9311    2.1365 C.3       6 UNK         0.0367 
     41 CB         25.6780   29.3869    1.4206 C.3       6 UNK        -0.1929 
     42 C          28.1896   29.0124    1.2169 C.2       6 UNK         0.5070 
     43 O          28.0768   28.7428    0.0185 O.2       6 UNK        -0.5237 
     44 N          29.3437   29.3330    1.8070 N.am      7 UNK        -0.4739 
     45 CA         30.6192   29.5479    1.1269 C.3       7 UNK         0.0276 
     46 CB         31.6653   28.5869    1.7180 C.3       7 UNK        -0.1927 
     47 C          31.0618   31.0019    1.3309 C.2       7 UNK         0.5013 
     48 O          30.6613   31.6376    2.3104 O.2       7 UNK        -0.5193 
     49 N          31.8966   31.5000    0.4114 N.am      8 UNK        -0.4253 
     50 CA         32.5004   32.8292    0.4857 C.3       8 UNK         0.0242 
     51 CB         32.9848   33.2486   -0.9131 C.3       8 UNK        -0.2000 
     52 C          33.6559   32.8171    1.4967 C.2       8 UNK         0.4948 
     53 O          34.6879   32.2018    1.2208 O.2       8 UNK        -0.5275 
     54 N          33.4483   33.4596    2.6547 N.am      9 UNK        -0.4246 
     55 CA         34.3656   33.6412    3.7939 C.3       9 UNK         0.0261 
     56 CB         35.6144   34.4438    3.3788 C.3       9 UNK        -0.1959 
     57 C          34.7692   32.3564    4.5471 C.2       9 UNK         0.5033 
     58 O          34.9069   32.4032    5.7715 O.2       9 UNK        -0.5390 
     59 N          34.9620   31.2466    3.8251 N.am      10 UNK        -0.4215 
     60 CA         35.3148   29.9271    4.3492 C.3       10 UNK         0.0240 
     61 CB         35.5223   28.9568    3.1747 C.3       10 UNK        -0.1982 
     62 C          34.2557   29.3740    5.3166 C.2       10 UNK         0.4970 
     63 O          33.0587   29.5404    5.0757 O.2       10 UNK        -0.4916 
     64 N          34.7321   28.7050    6.3724 N.am      11 UNK        -0.4279 
     65 CA         33.9358   28.0514    7.4273 C.3       11 UNK         0.1003 
     66 C          33.1465   29.0241    8.3574 C.2       11 UNK         0.5709 
     67 N          33.3676   30.3326    8.2988 N.am      11 UNK        -0.7358 
     68 O          32.3452   28.5831    9.1783 O.2       11 UNK        -0.4999 
     69 C69        33.0510   26.8810    6.9028 C.3       12 UNK        -0.0954 
     70 S70        33.9827   25.6814    5.8849 S.3       12 UNK        -0.2268 
     71 C71        33.1307   25.8281    4.2757 C.3       12 UNK         0.0203 
     72 H72        34.0093   25.4494   -2.5433 H         1 UNK         0.0888 
     73 H73        34.4862   25.8575   -0.8926 H         1 UNK         0.0888 
     74 H74        33.5875   24.3725   -1.2101 H         1 UNK         0.0888 
     75 H75        31.3971   24.5228   -0.7383 H         1 UNK         0.3017 
     76 H76        30.1254   27.1541   -0.4630 H         1 UNK         0.0873 
     77 H77        29.7877   25.6987    1.4459 H         1 UNK         0.0745 
     78 H78        28.2868   25.9525    0.6380 H         1 UNK         0.0745 
     79 H79        30.3073   21.8306    1.1696 H         1 UNK         0.0705 
     80 H80        31.2923   23.0942    0.4936 H         1 UNK         0.0705 
     81 H81        32.3657   24.6639    1.9610 H         1 UNK         0.1334 
     82 H82        31.3205   24.8044    6.1184 H         1 UNK         0.1417 
     83 H83        29.1478   22.2553    3.4500 H         1 UNK         0.1562 
     84 H84        29.5424   23.5354    6.9913 H         1 UNK         0.0748 
     85 H85        29.3879   21.9710    6.2299 H         1 UNK         0.0748 
     86 H86        28.3988   25.5997    5.8431 H         1 UNK         0.0940 
     87 H87        26.6668   25.6201    5.9860 H         1 UNK         0.0940 
     88 H88        28.2294   25.0745    3.4124 H         1 UNK         0.0703 
     89 H89        26.4236   24.2590    2.4895 H         1 UNK         0.3081 
     90 H90        23.8077   23.3358    3.0806 H         1 UNK         0.0719 
     91 H91        22.4947   26.0137    2.3775 H         1 UNK         0.0809 
     92 H92        21.7558   24.4291    2.1502 H         1 UNK         0.0809 
     93 H93        22.1128   25.0061    3.7675 H         1 UNK         0.0809 
     94 H94        24.1111   23.2533    0.8668 H         1 UNK         0.2990 
     95 H95        25.2565   23.7712   -1.1519 H         1 UNK         0.0690 
     96 H96        23.4813   24.4888   -2.7899 H         1 UNK         0.0788 
     97 H97        22.9856   25.7908   -1.7104 H         1 UNK         0.0788 
     98 H98        22.7327   24.1125   -1.2520 H         1 UNK         0.0788 
     99 H99        25.9935   26.4648   -1.0218 H         1 UNK         0.2993 
    100 H100       27.7164   26.6373   -4.1542 H         1 UNK         0.0949 
    101 H101       25.7697   28.2171   -4.1099 H         1 UNK         0.0767 
    102 H102       26.0601   28.5451   -2.4055 H         1 UNK         0.0767 
    103 H103       27.2549   29.0129   -3.6125 H         1 UNK         0.0767 
    104 H104       28.1279   27.6456   -1.4369 H         1 UNK         0.3013 
    105 H105       26.1790   26.9678    2.0647 H         1 UNK         0.3121 
    106 H106       27.1141   29.5945    2.9910 H         1 UNK         0.0774 
    107 H107       24.8068   29.2901    2.0686 H         1 UNK         0.0815 
    108 H108       25.7518   30.4346    1.1272 H         1 UNK         0.0815 
    109 H109       25.4843   28.8132    0.5142 H         1 UNK         0.0815 
    110 H110       29.3398   29.5486    2.7958 H         1 UNK         0.2987 
    111 H111       30.5224   29.3663    0.0546 H         1 UNK         0.0949 
    112 H112       32.6108   28.6622    1.1801 H         1 UNK         0.0806 
    113 H113       31.8644   28.8066    2.7674 H         1 UNK         0.0806 
    114 H114       31.3417   27.5490    1.6551 H         1 UNK         0.0806 
    115 H115       32.2144   30.9025   -0.3387 H         1 UNK         0.3010 
    116 H116       31.7442   33.5486    0.8087 H         1 UNK         0.0829 
    117 H117       32.1571   33.2979   -1.6210 H         1 UNK         0.0813 
    118 H118       33.4455   34.2370   -0.8845 H         1 UNK         0.0813 
    119 H119       33.7266   32.5558   -1.3128 H         1 UNK         0.0813 
    120 H120       32.5289   33.8575    2.7947 H         1 UNK         0.3038 
    121 H121       33.8139   34.2503    4.5120 H         1 UNK         0.0769 
    122 H122       36.2293   33.9003    2.6608 H         1 UNK         0.0811 
    123 H123       36.2431   34.6596    4.2439 H         1 UNK         0.0811 
    124 H124       35.3414   35.3994    2.9313 H         1 UNK         0.0811 
    125 H125       34.8569   31.3369    2.8166 H         1 UNK         0.3204 
    126 H126       36.2607   30.0336    4.8842 H         1 UNK         0.0748 
    127 H127       36.3121   29.3029    2.5075 H         1 UNK         0.0771 
    128 H128       35.8085   27.9658    3.5302 H         1 UNK         0.0771 
    129 H129       34.6128   28.8408    2.5849 H         1 UNK         0.0771 
    130 H130       35.7324   28.6288    6.4852 H         1 UNK         0.2980 
    131 H131       34.6790   27.6043    8.0882 H         1 UNK         0.0545 
    132 H132       32.8596   30.9453    8.9166 H         1 UNK         0.3459 
    133 H133       34.0077   30.7174    7.6204 H         1 UNK         0.3459 
    134 H134       32.6255   26.3275    7.7415 H         1 UNK         0.0616 
    135 H135       32.2000   27.2683    6.3406 H         1 UNK         0.0616 
    136 H136       32.7483   26.8400    4.1401 H         1 UNK         0.0634 
    137 H137       33.8852   25.6858    3.5005 H         1 UNK         0.0634 
@<TRIPOS>BOND
     1    1    2 1    
     2    1   72 1    
     3    1   73 1    
     4    1   74 1    
     5    2    3 2    
     6    2    4 am   BACKBONE|DICT|INTERRES
     7    4    5 1    
     8    4   75 1    
     9    5    6 1    
    10    5   35 1    
    11    5   76 1    
    12    6    7 1    
    13    6   77 1    
    14    6   78 1    
    15    7    8 1    
    16    8    9 1    
    17    8   79 1    
    18    8   80 1    
    19    9   10 ar   
    20    9   14 ar   
    21   10   11 ar   
    22   10   81 1    
    23   11   12 ar   
    24   11   71 1    
    25   12   13 ar   
    26   12   82 1    
    27   13   14 ar   
    28   13   15 1    
    29   14   83 1    
    30   15   16 1    
    31   15   84 1    
    32   15   85 1    
    33   16   17 1    
    34   17   18 1    
    35   17   86 1    
    36   17   87 1    
    37   18   19 1    
    38   18   37 1    
    39   18   88 1    
    40   19   20 am   BACKBONE|DICT|INTERRES
    41   19   89 1    
    42   20   21 2    
    43   20   22 1    
    44   22   23 1    
    45   22   24 1    
    46   22   90 1    
    47   23   91 1    
    48   23   92 1    
    49   23   93 1    
    50   24   25 am   BACKBONE|DICT|INTERRES
    51   24   94 1    
    52   25   26 2    
    53   25   27 1    
    54   27   28 1    
    55   27   29 1    
    56   27   95 1    
    57   28   96 1    
    58   28   97 1    
    59   28   98 1    
    60   29   30 am   BACKBONE|DICT|INTERRES
    61   29   99 1    
    62   30   31 2    
    63   30   32 1    
    64   32   33 1    
    65   32   34 1    
    66   32  100 1    
    67   33  101 1    
    68   33  102 1    
    69   33  103 1    
    70   34   35 am   BACKBONE|DICT|INTERRES
    71   34  104 1    
    72   35   36 2    
    73   37   38 2    
    74   37   39 am   BACKBONE|DICT|INTERRES
    75   39   40 1    
    76   39  105 1    
    77   40   41 1    
    78   40   42 1    
    79   40  106 1    
    80   41  107 1    
    81   41  108 1    
    82   41  109 1    
    83   42   43 2    
    84   42   44 am   BACKBONE|DICT|INTERRES
    85   44   45 1    
    86   44  110 1    
    87   45   46 1    
    88   45   47 1    
    89   45  111 1    
    90   46  112 1    
    91   46  113 1    
    92   46  114 1    
    93   47   48 2    
    94   47   49 am   BACKBONE|DICT|INTERRES
    95   49   50 1    
    96   49  115 1    
    97   50   51 1    
    98   50   52 1    
    99   50  116 1    
   100   51  117 1    
   101   51  118 1    
   102   51  119 1    
   103   52   53 2    
   104   52   54 am   BACKBONE|DICT|INTERRES
   105   54   55 1    
   106   54  120 1    
   107   55   56 1    
   108   55   57 1    
   109   55  121 1    
   110   56  122 1    
   111   56  123 1    
   112   56  124 1    
   113   57   58 2    
   114   57   59 am   BACKBONE|DICT|INTERRES
   115   59   60 1    
   116   59  125 1    
   117   60   61 1    
   118   60   62 1    
   119   60  126 1    
   120   61  127 1    
   121   61  128 1    
   122   61  129 1    
   123   62   63 2    
   124   62   64 am   BACKBONE|DICT|INTERRES
   125   64   65 1    
   126   64  130 1    
   127   65   66 1    
   128   65   69 1    
   129   65  131 1    
   130   66   67 am   BACKBONE|DICT|INTERRES
   131   66   68 2    
   132   67  132 1    
   133   67  133 1    
   134   69   70 1    
   135   69  134 1    
   136   69  135 1    
   137   70   71 1    
   138   71  136 1    
   139   71  137 1    
@<TRIPOS>SUBSTRUCTURE
     1 UNK         1 GROUP             0       ****    0 ROOT    
