@<TRIPOS>MOLECULE
3R136
137   139    1
SMALL
USER_CHARGES


@<TRIPOS>ATOM
      1 CA         34.8027   22.8881    0.8485 C.3       0 UNK        -0.1979 
      2 C          33.3605   23.1493    1.2568 C.2       0 UNK         0.4864 
      3 O          33.0912   23.3600    2.4379 O.2       0 UNK        -0.5359 
      4 N          32.4399   23.1384    0.2887 N.am      1 UNK        -0.4318 
      5 CA         31.0133   23.4229    0.4311 C.3       1 UNK         0.0824 
      6 C6         30.2314   22.2302    1.0480 C.3       12 UNK        -0.0944 
      7 S7         28.5320   22.6464    1.5891 S.3       12 UNK        -0.2672 
      8 C8         28.6353   22.6131    3.4087 C.3       12 UNK         0.0333 
      9 C9         28.8691   23.9982    3.9971 C.ar      12 UNK        -0.0807 
     10 C10        30.1353   24.5804    3.9322 C.ar      12 UNK        -0.0894 
     11 C11        30.3741   25.8392    4.4876 C.ar      12 UNK        -0.0804 
     12 C12        29.3323   26.5175    5.1300 C.ar      12 UNK        -0.0824 
     13 C13        28.0617   25.9359    5.2256 C.ar      12 UNK        -0.0762 
     14 C14        27.8345   24.6826    4.6445 C.ar      12 UNK        -0.0782 
     15 C15        26.9555   26.6194    6.0238 C.3       12 UNK         0.0230 
     16 S16        25.5012   27.0628    5.0169 S.3       12 UNK        -0.2608 
     17 C17        26.1264   28.4790    4.0558 C.3       12 UNK        -0.0989 
     18 CA         26.2581   28.1738    2.5386 C.3       5 UNK         0.0716 
     19 N          24.9707   27.9837    1.8717 N.am      5 UNK        -0.4135 
     20 C          24.4388   26.8043    1.5326 C.2       4 UNK         0.5031 
     21 O          24.8846   25.7127    1.8881 O.2       4 UNK        -0.5229 
     22 CA         23.2331   26.8318    0.5698 C.3       4 UNK         0.0329 
     23 CB         22.5839   28.2248    0.3926 C.3       4 UNK        -0.2001 
     24 N          23.6078   26.2663   -0.7336 N.am      4 UNK        -0.4303 
     25 C          24.6287   26.6676   -1.5062 C.2       3 UNK         0.5044 
     26 O          25.3255   27.6597   -1.2745 O.2       3 UNK        -0.5152 
     27 CA         24.9407   25.8074   -2.7430 C.3       3 UNK         0.0319 
     28 CB         24.4036   26.4804   -4.0160 C.3       3 UNK        -0.2001 
     29 N          26.3841   25.5890   -2.8818 N.am      3 UNK        -0.4354 
     30 C          27.1408   24.9433   -1.9833 C.2       2 UNK         0.4964 
     31 O          26.6790   24.3530   -1.0039 O.2       2 UNK        -0.5047 
     32 CA         28.6606   24.9644   -2.2084 C.3       2 UNK         0.0288 
     33 CB         29.1975   26.3791   -2.5119 C.3       2 UNK        -0.2113 
     34 N          29.3145   24.4421   -1.0113 N.am      2 UNK        -0.4145 
     35 C          30.5072   23.8454   -0.9638 C.2       1 UNK         0.5006 
     36 O          31.2104   23.6453   -1.9606 O.2       1 UNK        -0.5103 
     37 C          27.0381   29.2693    1.7846 C.2       5 UNK         0.5055 
     38 O          27.6582   30.1211    2.4199 O.2       5 UNK        -0.5220 
     39 N          27.0332   29.2457    0.4404 N.am      6 UNK        -0.4450 
     40 CA         27.8009   30.1865   -0.3942 C.3       6 UNK         0.0367 
     41 CB         27.4276   29.9935   -1.8728 C.3       6 UNK        -0.1929 
     42 C          29.3299   30.0954   -0.1999 C.2       6 UNK         0.5070 
     43 O          30.0409   31.0522   -0.5058 O.2       6 UNK        -0.5237 
     44 N          29.8011   28.9630    0.3382 N.am      7 UNK        -0.4739 
     45 CA         31.1887   28.7087    0.7219 C.3       7 UNK         0.0276 
     46 CB         31.4290   27.1898    0.6926 C.3       7 UNK        -0.1927 
     47 C          31.5765   29.2898    2.0967 C.2       7 UNK         0.5013 
     48 O          32.7201   29.0882    2.5068 O.2       7 UNK        -0.5193 
     49 N          30.6587   29.9767    2.8026 N.am      8 UNK        -0.4253 
     50 CA         30.8338   30.5103    4.1668 C.3       8 UNK         0.0242 
     51 CB         29.5868   31.3014    4.5917 C.3       8 UNK        -0.2000 
     52 C          32.0964   31.3563    4.4108 C.2       8 UNK         0.4948 
     53 O          32.5776   31.3869    5.5426 O.2       8 UNK        -0.5275 
     54 N          32.6425   31.9802    3.3583 N.am      9 UNK        -0.4246 
     55 CA         33.9347   32.6715    3.3760 C.3       9 UNK         0.0261 
     56 CB         34.1609   33.3542    2.0174 C.3       9 UNK        -0.1959 
     57 C          35.1288   31.7585    3.7258 C.2       9 UNK         0.5033 
     58 O          36.1110   32.2543    4.2800 O.2       9 UNK        -0.5390 
     59 N          35.0314   30.4577    3.4110 N.am      10 UNK        -0.4215 
     60 CA         36.0231   29.4463    3.7768 C.3       10 UNK         0.0240 
     61 CB         35.9833   28.2886    2.7643 C.3       10 UNK        -0.1982 
     62 C          35.8026   28.9221    5.2046 C.2       10 UNK         0.4970 
     63 O          36.7799   28.7465    5.9335 O.2       10 UNK        -0.4916 
     64 N          34.5390   28.6657    5.5718 N.am      11 UNK        -0.4279 
     65 CA         34.1600   28.1260    6.8895 C.3       11 UNK         0.1003 
     66 C          34.2234   29.1629    8.0450 C.2       11 UNK         0.5709 
     67 N          34.0081   30.4479    7.7968 N.am      11 UNK        -0.7358 
     68 O          34.4857   28.7929    9.1870 O.2       11 UNK        -0.4999 
     69 C69        32.7881   27.4021    6.8592 C.3       12 UNK        -0.0954 
     70 S70        32.8239   25.9336    5.7757 S.3       12 UNK        -0.2268 
     71 C71        31.7653   26.4454    4.3906 C.3       12 UNK         0.0203 
     72 H72        35.1865   22.0110    1.3689 H         1 UNK         0.0888 
     73 H73        34.8984   22.7156   -0.2235 H         1 UNK         0.0888 
     74 H74        35.4269   23.7416    1.1121 H         1 UNK         0.0888 
     75 H75        32.7132   23.0080   -0.6792 H         1 UNK         0.3017 
     76 H76        30.9147   24.2891    1.0863 H         1 UNK         0.0873 
     77 H77        30.1739   21.4048    0.3361 H         1 UNK         0.0745 
     78 H78        30.7781   21.8342    1.9044 H         1 UNK         0.0745 
     79 H79        27.7016   22.1994    3.7926 H         1 UNK         0.0705 
     80 H80        29.4190   21.9298    3.7383 H         1 UNK         0.0705 
     81 H81        30.9419   24.0441    3.4562 H         1 UNK         0.1334 
     82 H82        29.5202   27.4825    5.5800 H         1 UNK         0.1417 
     83 H83        26.8534   24.2328    4.7176 H         1 UNK         0.1562 
     84 H84        27.3292   27.5104    6.5310 H         1 UNK         0.0748 
     85 H85        26.6311   25.9408    6.8139 H         1 UNK         0.0748 
     86 H86        27.0907   28.7689    4.4766 H         1 UNK         0.0940 
     87 H87        25.4627   29.3301    4.2175 H         1 UNK         0.0940 
     88 H88        26.8615   27.2693    2.4303 H         1 UNK         0.0703 
     89 H89        24.5387   28.8216    1.5090 H         1 UNK         0.3081 
     90 H90        22.4817   26.1676    0.9997 H         1 UNK         0.0719 
     91 H91        23.2530   28.9429   -0.0829 H         1 UNK         0.0809 
     92 H92        21.6897   28.1576   -0.2272 H         1 UNK         0.0809 
     93 H93        22.2723   28.6401    1.3521 H         1 UNK         0.0809 
     94 H94        23.1175   25.4225   -0.9959 H         1 UNK         0.2990 
     95 H95        24.4609   24.8326   -2.6324 H         1 UNK         0.0690 
     96 H96        24.5896   25.8684   -4.8989 H         1 UNK         0.0788 
     97 H97        24.8622   27.4568   -4.1796 H         1 UNK         0.0788 
     98 H98        23.3257   26.6343   -3.9505 H         1 UNK         0.0788 
     99 H99        26.8390   26.0658   -3.6462 H         1 UNK         0.2993 
    100 H100       28.8727   24.3043   -3.0523 H         1 UNK         0.0949 
    101 H101       30.2791   26.3713   -2.6480 H         1 UNK         0.0767 
    102 H102       28.7699   26.7885   -3.4273 H         1 UNK         0.0767 
    103 H103       28.9710   27.0708   -1.7010 H         1 UNK         0.0767 
    104 H104       28.7290   24.4412   -0.1828 H         1 UNK         0.3013 
    105 H105       26.4727   28.5543   -0.0565 H         1 UNK         0.3121 
    106 H106       27.5065   31.1973   -0.1040 H         1 UNK         0.0774 
    107 H107       27.6448   28.9833   -2.2183 H         1 UNK         0.0815 
    108 H108       27.9804   30.6840   -2.5112 H         1 UNK         0.0815 
    109 H109       26.3665   30.1798   -2.0392 H         1 UNK         0.0815 
    110 H110       29.1331   28.2399    0.5593 H         1 UNK         0.2987 
    111 H111       31.8490   29.1723   -0.0143 H         1 UNK         0.0949 
    112 H112       30.7792   26.6694    1.3968 H         1 UNK         0.0806 
    113 H113       31.2492   26.7820   -0.3013 H         1 UNK         0.0806 
    114 H114       32.4594   26.9443    0.9547 H         1 UNK         0.0806 
    115 H115       29.7300   30.0835    2.4077 H         1 UNK         0.3010 
    116 H116       30.9146   29.6512    4.8332 H         1 UNK         0.0829 
    117 H117       28.7251   30.6462    4.7105 H         1 UNK         0.0813 
    118 H118       29.7370   31.7954    5.5531 H         1 UNK         0.0813 
    119 H119       29.3294   32.0721    3.8643 H         1 UNK         0.0813 
    120 H120       32.1780   31.9004    2.4653 H         1 UNK         0.3038 
    121 H121       33.8821   33.4455    4.1446 H         1 UNK         0.0769 
    122 H122       34.1957   32.6300    1.2024 H         1 UNK         0.0811 
    123 H123       35.1051   33.9008    2.0081 H         1 UNK         0.0811 
    124 H124       33.3712   34.0727    1.7966 H         1 UNK         0.0811 
    125 H125       34.1774   30.1135    2.9747 H         1 UNK         0.3204 
    126 H126       37.0191   29.8926    3.7323 H         1 UNK         0.0748 
    127 H127       36.7563   27.5519    2.9865 H         1 UNK         0.0771 
    128 H128       35.0256   27.7666    2.7767 H         1 UNK         0.0771 
    129 H129       36.1568   28.6444    1.7486 H         1 UNK         0.0771 
    130 H130       33.7914   28.8413    4.9182 H         1 UNK         0.2980 
    131 H131       34.9030   27.3673    7.1453 H         1 UNK         0.0545 
    132 H132       34.0621   31.1088    8.5544 H         1 UNK         0.3459 
    133 H133       33.6824   30.7564    6.8838 H         1 UNK         0.3459 
    134 H134       32.5205   27.0507    7.8575 H         1 UNK         0.0616 
    135 H135       31.9933   28.0862    6.5589 H         1 UNK         0.0616 
    136 H136       31.7028   27.5293    4.3512 H         1 UNK         0.0634 
    137 H137       32.2419   26.1345    3.4597 H         1 UNK         0.0634 
@<TRIPOS>BOND
     1    1    2 1    
     2    1   72 1    
     3    1   73 1    
     4    1   74 1    
     5    2    3 2    
     6    2    4 am   BACKBONE|DICT|INTERRES
     7    4    5 1    
     8    4   75 1    
     9    5    6 1    
    10    5   35 1    
    11    5   76 1    
    12    6    7 1    
    13    6   77 1    
    14    6   78 1    
    15    7    8 1    
    16    8    9 1    
    17    8   79 1    
    18    8   80 1    
    19    9   10 ar   
    20    9   14 ar   
    21   10   11 ar   
    22   10   81 1    
    23   11   12 ar   
    24   11   71 1    
    25   12   13 ar   
    26   12   82 1    
    27   13   14 ar   
    28   13   15 1    
    29   14   83 1    
    30   15   16 1    
    31   15   84 1    
    32   15   85 1    
    33   16   17 1    
    34   17   18 1    
    35   17   86 1    
    36   17   87 1    
    37   18   19 1    
    38   18   37 1    
    39   18   88 1    
    40   19   20 am   BACKBONE|DICT|INTERRES
    41   19   89 1    
    42   20   21 2    
    43   20   22 1    
    44   22   23 1    
    45   22   24 1    
    46   22   90 1    
    47   23   91 1    
    48   23   92 1    
    49   23   93 1    
    50   24   25 am   BACKBONE|DICT|INTERRES
    51   24   94 1    
    52   25   26 2    
    53   25   27 1    
    54   27   28 1    
    55   27   29 1    
    56   27   95 1    
    57   28   96 1    
    58   28   97 1    
    59   28   98 1    
    60   29   30 am   BACKBONE|DICT|INTERRES
    61   29   99 1    
    62   30   31 2    
    63   30   32 1    
    64   32   33 1    
    65   32   34 1    
    66   32  100 1    
    67   33  101 1    
    68   33  102 1    
    69   33  103 1    
    70   34   35 am   BACKBONE|DICT|INTERRES
    71   34  104 1    
    72   35   36 2    
    73   37   38 2    
    74   37   39 am   BACKBONE|DICT|INTERRES
    75   39   40 1    
    76   39  105 1    
    77   40   41 1    
    78   40   42 1    
    79   40  106 1    
    80   41  107 1    
    81   41  108 1    
    82   41  109 1    
    83   42   43 2    
    84   42   44 am   BACKBONE|DICT|INTERRES
    85   44   45 1    
    86   44  110 1    
    87   45   46 1    
    88   45   47 1    
    89   45  111 1    
    90   46  112 1    
    91   46  113 1    
    92   46  114 1    
    93   47   48 2    
    94   47   49 am   BACKBONE|DICT|INTERRES
    95   49   50 1    
    96   49  115 1    
    97   50   51 1    
    98   50   52 1    
    99   50  116 1    
   100   51  117 1    
   101   51  118 1    
   102   51  119 1    
   103   52   53 2    
   104   52   54 am   BACKBONE|DICT|INTERRES
   105   54   55 1    
   106   54  120 1    
   107   55   56 1    
   108   55   57 1    
   109   55  121 1    
   110   56  122 1    
   111   56  123 1    
   112   56  124 1    
   113   57   58 2    
   114   57   59 am   BACKBONE|DICT|INTERRES
   115   59   60 1    
   116   59  125 1    
   117   60   61 1    
   118   60   62 1    
   119   60  126 1    
   120   61  127 1    
   121   61  128 1    
   122   61  129 1    
   123   62   63 2    
   124   62   64 am   BACKBONE|DICT|INTERRES
   125   64   65 1    
   126   64  130 1    
   127   65   66 1    
   128   65   69 1    
   129   65  131 1    
   130   66   67 am   BACKBONE|DICT|INTERRES
   131   66   68 2    
   132   67  132 1    
   133   67  133 1    
   134   69   70 1    
   135   69  134 1    
   136   69  135 1    
   137   70   71 1    
   138   71  136 1    
   139   71  137 1    
@<TRIPOS>SUBSTRUCTURE
     1 UNK         1 GROUP             0       ****    0 ROOT    
