@<TRIPOS>MOLECULE
3R136
137   139    1
SMALL
USER_CHARGES


@<TRIPOS>ATOM
      1 CA         32.1632   27.9507   -2.6285 C.3       0 UNK        -0.1979 
      2 C          31.6431   27.0841   -3.7715 C.2       0 UNK         0.4864 
      3 O          32.1551   27.1831   -4.8857 O.2       0 UNK        -0.5359 
      4 N          30.6363   26.2302   -3.5550 N.am      1 UNK        -0.4318 
      5 CA         29.8836   26.0263   -2.3176 C.3       1 UNK         0.0824 
      6 C6         30.6145   25.0815   -1.3230 C.3       12 UNK        -0.0944 
      7 S7         30.2388   25.4907    0.4126 S.3       12 UNK        -0.2672 
      8 C8         30.9343   24.0336    1.2468 C.3       12 UNK         0.0333 
      9 C9         31.0057   24.2475    2.7503 C.ar      12 UNK        -0.0807 
     10 C10        32.1664   24.7695    3.3298 C.ar      12 UNK        -0.0894 
     11 C11        32.2401   24.9753    4.7103 C.ar      12 UNK        -0.0804 
     12 C12        31.1377   24.6601    5.5099 C.ar      12 UNK        -0.0824 
     13 C13        29.9678   24.1417    4.9452 C.ar      12 UNK        -0.0762 
     14 C14        29.9156   23.9220    3.5632 C.ar      12 UNK        -0.0782 
     15 C15        28.7867   23.8075    5.8549 C.3       12 UNK         0.0230 
     16 S16        27.1515   24.2695    5.1855 S.3       12 UNK        -0.2608 
     17 C17        27.3557   26.0440    4.7984 C.3       12 UNK        -0.0989 
     18 CA         27.1264   26.3135    3.2853 C.3       5 UNK         0.0716 
     19 N          25.7929   25.9326    2.8037 N.am      5 UNK        -0.4135 
     20 C          24.6128   26.4353    3.2001 C.2       4 UNK         0.5031 
     21 O          24.4967   27.2979    4.0716 O.2       4 UNK        -0.5229 
     22 CA         23.3362   25.9254    2.4953 C.3       4 UNK         0.0329 
     23 CB         22.6360   27.0774    1.7530 C.3       4 UNK        -0.2001 
     24 N          23.5790   24.8401    1.5419 N.am      4 UNK        -0.4303 
     25 C          23.8430   23.5651    1.8603 C.2       3 UNK         0.5044 
     26 O          23.7903   23.1212    3.0070 O.2       3 UNK        -0.5152 
     27 CA         24.2764   22.6357    0.7075 C.3       3 UNK         0.0319 
     28 CB         23.1011   21.7509    0.2614 C.3       3 UNK        -0.2001 
     29 N          24.8269   23.3336   -0.4649 N.am      3 UNK        -0.4354 
     30 C          25.9174   24.1133   -0.4604 C.2       2 UNK         0.4964 
     31 O          26.5864   24.3538    0.5482 O.2       2 UNK        -0.5047 
     32 CA         26.2753   24.7975   -1.7829 C.3       2 UNK         0.0288 
     33 CB         25.2930   25.9438   -2.0919 C.3       2 UNK        -0.2113 
     34 N          27.6310   25.3267   -1.6749 N.am      2 UNK        -0.4145 
     35 C          28.4779   25.5168   -2.6896 C.2       1 UNK         0.5006 
     36 O          28.1922   25.2947   -3.8710 O.2       1 UNK        -0.5103 
     37 C          27.4961   27.7418    2.8373 C.2       5 UNK         0.5055 
     38 O          28.1041   28.5012    3.5947 O.2       5 UNK        -0.5220 
     39 N          27.1429   28.0739    1.5861 N.am      6 UNK        -0.4450 
     40 CA         27.4731   29.3266    0.9023 C.3       6 UNK         0.0367 
     41 CB         26.4487   29.5621   -0.2236 C.3       6 UNK        -0.1929 
     42 C          28.9252   29.3053    0.3856 C.2       6 UNK         0.5070 
     43 O          29.1601   29.3904   -0.8210 O.2       6 UNK        -0.5237 
     44 N          29.8707   29.1345    1.3135 N.am      7 UNK        -0.4739 
     45 CA         31.3020   29.0229    1.0512 C.3       7 UNK         0.0276 
     46 CB         31.9718   28.4021    2.2853 C.3       7 UNK        -0.1927 
     47 C          31.9416   30.3805    0.7228 C.2       7 UNK         0.5013 
     48 O          31.4447   31.4227    1.1577 O.2       7 UNK        -0.5193 
     49 N          33.0663   30.3324   -0.0036 N.am      8 UNK        -0.4253 
     50 CA         33.9258   31.4919   -0.2622 C.3       8 UNK         0.0242 
     51 CB         34.7896   31.2168   -1.5043 C.3       8 UNK        -0.2000 
     52 C          34.8122   31.8416    0.9484 C.2       8 UNK         0.4948 
     53 O          35.1730   33.0072    1.1176 O.2       8 UNK        -0.5275 
     54 N          35.1466   30.8300    1.7611 N.am      9 UNK        -0.4246 
     55 CA         35.8623   30.9653    3.0287 C.3       9 UNK         0.0261 
     56 CB         36.5600   29.6305    3.3422 C.3       9 UNK        -0.1959 
     57 C          34.8963   31.3422    4.1630 C.2       9 UNK         0.5033 
     58 O          33.6887   31.1142    4.0511 O.2       9 UNK        -0.5390 
     59 N          35.4489   31.8650    5.2648 N.am      10 UNK        -0.4215 
     60 CA         34.7218   32.2461    6.4812 C.3       10 UNK         0.0240 
     61 CB         35.5674   33.2668    7.2671 C.3       10 UNK        -0.1982 
     62 C          34.3160   31.0253    7.3357 C.2       10 UNK         0.4970 
     63 O          34.6995   30.9320    8.5036 O.2       10 UNK        -0.4916 
     64 N          33.5633   30.1029    6.7283 N.am      11 UNK        -0.4279 
     65 CA         32.9968   28.9026    7.3569 C.3       11 UNK         0.1003 
     66 C          31.9377   29.2427    8.4414 C.2       11 UNK         0.5709 
     67 N          31.8380   28.4310    9.4856 N.am      11 UNK        -0.7358 
     68 O          31.1828   30.2073    8.3270 O.2       11 UNK        -0.4999 
     69 C69        32.4033   27.9444    6.2931 C.3       12 UNK        -0.0954 
     70 S70        33.6732   27.3184    5.1411 S.3       12 UNK        -0.2268 
     71 C71        33.5185   25.5158    5.3384 C.3       12 UNK         0.0203 
     72 H72        31.4064   28.6723   -2.3218 H         1 UNK         0.0888 
     73 H73        32.4449   27.3428   -1.7707 H         1 UNK         0.0888 
     74 H74        33.0453   28.5079   -2.9435 H         1 UNK         0.0888 
     75 H75        30.2499   25.7121   -4.3351 H         1 UNK         0.3017 
     76 H76        29.7354   27.0041   -1.8565 H         1 UNK         0.0873 
     77 H77        31.6962   25.1580   -1.4383 H         1 UNK         0.0745 
     78 H78        30.3778   24.0331   -1.5173 H         1 UNK         0.0745 
     79 H79        31.9309   23.8289    0.8522 H         1 UNK         0.0705 
     80 H80        30.3236   23.1591    1.0167 H         1 UNK         0.0705 
     81 H81        33.0133   25.0210    2.7059 H         1 UNK         0.1334 
     82 H82        31.1935   24.8142    6.5788 H         1 UNK         0.1417 
     83 H83        29.0203   23.5116    3.1159 H         1 UNK         0.1562 
     84 H84        28.9020   24.2968    6.8235 H         1 UNK         0.0748 
     85 H85        28.7919   22.7347    6.0509 H         1 UNK         0.0748 
     86 H86        28.3549   26.3648    5.0983 H         1 UNK         0.0940 
     87 H87        26.6630   26.6230    5.4104 H         1 UNK         0.0940 
     88 H88        27.8211   25.6743    2.7390 H         1 UNK         0.0703 
     89 H89        25.8019   25.2263    2.0742 H         1 UNK         0.3081 
     90 H90        22.6632   25.5580    3.2728 H         1 UNK         0.0719 
     91 H91        23.2675   27.4964    0.9684 H         1 UNK         0.0809 
     92 H92        21.7038   26.7465    1.2947 H         1 UNK         0.0809 
     93 H93        22.3854   27.8897    2.4367 H         1 UNK         0.0809 
     94 H94        23.6220   25.0982    0.5672 H         1 UNK         0.2990 
     95 H95        25.0628   21.9873    1.0998 H         1 UNK         0.0690 
     96 H96        23.4147   21.0181   -0.4825 H         1 UNK         0.0788 
     97 H97        22.2907   22.3416   -0.1677 H         1 UNK         0.0788 
     98 H98        22.6880   21.1953    1.1047 H         1 UNK         0.0788 
     99 H99        24.3291   23.2045   -1.3348 H         1 UNK         0.2993 
    100 H100       26.2387   24.0490   -2.5777 H         1 UNK         0.0949 
    101 H101       25.5668   26.4643   -3.0099 H         1 UNK         0.0767 
    102 H102       24.2778   25.5694   -2.2287 H         1 UNK         0.0767 
    103 H103       25.2647   26.6797   -1.2878 H         1 UNK         0.0767 
    104 H104       27.9675   25.4240   -0.7230 H         1 UNK         0.3013 
    105 H105       26.6719   27.3754    1.0316 H         1 UNK         0.3121 
    106 H106       27.3886   30.1522    1.6124 H         1 UNK         0.0774 
    107 H107       26.6306   30.5166   -0.7194 H         1 UNK         0.0815 
    108 H108       26.5003   28.7858   -0.9877 H         1 UNK         0.0815 
    109 H109       25.4299   29.5885    0.1633 H         1 UNK         0.0815 
    110 H110       29.5739   29.0730    2.2816 H         1 UNK         0.2987 
    111 H111       31.4378   28.3492    0.2041 H         1 UNK         0.0949 
    112 H112       33.0271   28.1966    2.1043 H         1 UNK         0.0806 
    113 H113       31.9133   29.0652    3.1498 H         1 UNK         0.0806 
    114 H114       31.5026   27.4575    2.5603 H         1 UNK         0.0806 
    115 H115       33.4017   29.4390   -0.3324 H         1 UNK         0.3010 
    116 H116       33.2946   32.3586   -0.4719 H         1 UNK         0.0829 
    117 H117       34.1723   31.0282   -2.3830 H         1 UNK         0.0813 
    118 H118       35.4236   32.0743   -1.7342 H         1 UNK         0.0813 
    119 H119       35.4450   30.3567   -1.3618 H         1 UNK         0.0813 
    120 H120       34.7596   29.9200    1.5670 H         1 UNK         0.3038 
    121 H121       36.6180   31.7483    2.9339 H         1 UNK         0.0769 
    122 H122       37.1337   29.6912    4.2679 H         1 UNK         0.0811 
    123 H123       37.2563   29.3518    2.5509 H         1 UNK         0.0811 
    124 H124       35.8424   28.8172    3.4586 H         1 UNK         0.0811 
    125 H125       36.4523   31.9782    5.2927 H         1 UNK         0.3204 
    126 H126       33.7962   32.7459    6.1868 H         1 UNK         0.0748 
    127 H127       35.0386   33.6100    8.1575 H         1 UNK         0.0771 
    128 H128       36.5162   32.8399    7.5949 H         1 UNK         0.0771 
    129 H129       35.7860   34.1488    6.6647 H         1 UNK         0.0771 
    130 H130       33.3214   30.2611    5.7546 H         1 UNK         0.2980 
    131 H131       33.8200   28.3865    7.8551 H         1 UNK         0.0545 
    132 H132       31.1472   28.6270   10.1930 H         1 UNK         0.3459 
    133 H133       32.4449   27.6324    9.5864 H         1 UNK         0.3459 
    134 H134       31.9175   27.0988    6.7805 H         1 UNK         0.0616 
    135 H135       31.6273   28.4448    5.7108 H         1 UNK         0.0616 
    136 H136       33.5718   25.2597    6.3977 H         1 UNK         0.0634 
    137 H137       34.3799   25.0397    4.8678 H         1 UNK         0.0634 
@<TRIPOS>BOND
     1    1    2 1    
     2    1   72 1    
     3    1   73 1    
     4    1   74 1    
     5    2    3 2    
     6    2    4 am   BACKBONE|DICT|INTERRES
     7    4    5 1    
     8    4   75 1    
     9    5    6 1    
    10    5   35 1    
    11    5   76 1    
    12    6    7 1    
    13    6   77 1    
    14    6   78 1    
    15    7    8 1    
    16    8    9 1    
    17    8   79 1    
    18    8   80 1    
    19    9   10 ar   
    20    9   14 ar   
    21   10   11 ar   
    22   10   81 1    
    23   11   12 ar   
    24   11   71 1    
    25   12   13 ar   
    26   12   82 1    
    27   13   14 ar   
    28   13   15 1    
    29   14   83 1    
    30   15   16 1    
    31   15   84 1    
    32   15   85 1    
    33   16   17 1    
    34   17   18 1    
    35   17   86 1    
    36   17   87 1    
    37   18   19 1    
    38   18   37 1    
    39   18   88 1    
    40   19   20 am   BACKBONE|DICT|INTERRES
    41   19   89 1    
    42   20   21 2    
    43   20   22 1    
    44   22   23 1    
    45   22   24 1    
    46   22   90 1    
    47   23   91 1    
    48   23   92 1    
    49   23   93 1    
    50   24   25 am   BACKBONE|DICT|INTERRES
    51   24   94 1    
    52   25   26 2    
    53   25   27 1    
    54   27   28 1    
    55   27   29 1    
    56   27   95 1    
    57   28   96 1    
    58   28   97 1    
    59   28   98 1    
    60   29   30 am   BACKBONE|DICT|INTERRES
    61   29   99 1    
    62   30   31 2    
    63   30   32 1    
    64   32   33 1    
    65   32   34 1    
    66   32  100 1    
    67   33  101 1    
    68   33  102 1    
    69   33  103 1    
    70   34   35 am   BACKBONE|DICT|INTERRES
    71   34  104 1    
    72   35   36 2    
    73   37   38 2    
    74   37   39 am   BACKBONE|DICT|INTERRES
    75   39   40 1    
    76   39  105 1    
    77   40   41 1    
    78   40   42 1    
    79   40  106 1    
    80   41  107 1    
    81   41  108 1    
    82   41  109 1    
    83   42   43 2    
    84   42   44 am   BACKBONE|DICT|INTERRES
    85   44   45 1    
    86   44  110 1    
    87   45   46 1    
    88   45   47 1    
    89   45  111 1    
    90   46  112 1    
    91   46  113 1    
    92   46  114 1    
    93   47   48 2    
    94   47   49 am   BACKBONE|DICT|INTERRES
    95   49   50 1    
    96   49  115 1    
    97   50   51 1    
    98   50   52 1    
    99   50  116 1    
   100   51  117 1    
   101   51  118 1    
   102   51  119 1    
   103   52   53 2    
   104   52   54 am   BACKBONE|DICT|INTERRES
   105   54   55 1    
   106   54  120 1    
   107   55   56 1    
   108   55   57 1    
   109   55  121 1    
   110   56  122 1    
   111   56  123 1    
   112   56  124 1    
   113   57   58 2    
   114   57   59 am   BACKBONE|DICT|INTERRES
   115   59   60 1    
   116   59  125 1    
   117   60   61 1    
   118   60   62 1    
   119   60  126 1    
   120   61  127 1    
   121   61  128 1    
   122   61  129 1    
   123   62   63 2    
   124   62   64 am   BACKBONE|DICT|INTERRES
   125   64   65 1    
   126   64  130 1    
   127   65   66 1    
   128   65   69 1    
   129   65  131 1    
   130   66   67 am   BACKBONE|DICT|INTERRES
   131   66   68 2    
   132   67  132 1    
   133   67  133 1    
   134   69   70 1    
   135   69  134 1    
   136   69  135 1    
   137   70   71 1    
   138   71  136 1    
   139   71  137 1    
@<TRIPOS>SUBSTRUCTURE
     1 UNK         1 GROUP             0       ****    0 ROOT    
