@<TRIPOS>MOLECULE
3R136
137   139    1
SMALL
USER_CHARGES


@<TRIPOS>ATOM
      1 CA         25.5778   17.3444   -1.0061 C.3       0 UNK        -0.1979 
      2 C          26.7774   18.1615   -0.5488 C.2       0 UNK         0.4864 
      3 O          27.7529   17.5930   -0.0561 O.2       0 UNK        -0.5359 
      4 N          26.7132   19.4871   -0.7095 N.am      1 UNK        -0.4318 
      5 CA         27.7665   20.4405   -0.3684 C.3       1 UNK         0.0824 
      6 C6         27.7737   20.7872    1.1476 C.3       12 UNK        -0.0944 
      7 S7         29.4347   21.1839    1.7956 S.3       12 UNK        -0.2672 
      8 C8         29.3559   22.9929    1.9699 C.3       12 UNK         0.0333 
      9 C9         30.4427   23.5223    2.8899 C.ar      12 UNK        -0.0807 
     10 C10        31.7668   23.6050    2.4446 C.ar      12 UNK        -0.0894 
     11 C11        32.7677   24.1034    3.2849 C.ar      12 UNK        -0.0804 
     12 C12        32.4354   24.5072    4.5804 C.ar      12 UNK        -0.0824 
     13 C13        31.1134   24.4473    5.0291 C.ar      12 UNK        -0.0762 
     14 C14        30.1202   23.9491    4.1820 C.ar      12 UNK        -0.0782 
     15 C15        30.7740   24.9079    6.4373 C.3       12 UNK         0.0230 
     16 S16        30.9288   26.7133    6.6089 S.3       12 UNK        -0.2608 
     17 C17        29.3367   27.3241    5.9619 C.3       12 UNK        -0.0989 
     18 CA         29.5402   28.3609    4.8274 C.3       5 UNK         0.0716 
     19 N          29.7543   27.7405    3.5147 N.am      5 UNK        -0.4135 
     20 C          30.1838   28.4113    2.4360 C.2       4 UNK         0.5031 
     21 O          30.5465   29.5873    2.4659 O.2       4 UNK        -0.5229 
     22 CA         30.1970   27.6664    1.0900 C.3       4 UNK         0.0329 
     23 CB         31.5522   26.9905    0.8613 C.3       4 UNK        -0.2001 
     24 N          29.1345   26.6714    0.9211 N.am      4 UNK        -0.4303 
     25 C          27.8186   26.9286    0.9310 C.2       3 UNK         0.5044 
     26 O          27.3494   28.0283    1.2207 O.2       3 UNK        -0.5152 
     27 CA         26.8724   25.7601    0.5804 C.3       3 UNK         0.0319 
     28 CB         25.5206   26.2440    0.0145 C.3       3 UNK        -0.2001 
     29 N          27.4786   24.7498   -0.3007 N.am      3 UNK        -0.4354 
     30 C          27.9396   24.9154   -1.5518 C.2       2 UNK         0.4964 
     31 O          27.8667   25.9763   -2.1720 O.2       2 UNK        -0.5047 
     32 CA         28.6453   23.7134   -2.2183 C.3       2 UNK         0.0288 
     33 CB         30.1106   24.0640   -2.5349 C.3       2 UNK        -0.2113 
     34 N          28.6297   22.4721   -1.4322 N.am      2 UNK        -0.4145 
     35 C          27.5622   21.6850   -1.2499 C.2       1 UNK         0.5006 
     36 O          26.4471   21.9254   -1.7222 O.2       1 UNK        -0.5103 
     37 C          28.3833   29.3817    4.7867 C.2       5 UNK         0.5055 
     38 O          28.5422   30.4939    5.2935 O.2       5 UNK        -0.5220 
     39 N          27.2567   28.9997    4.1661 N.am      6 UNK        -0.4450 
     40 CA         26.0737   29.8496    4.0000 C.3       6 UNK         0.0367 
     41 CB         24.8824   28.9995    3.5310 C.3       6 UNK        -0.1929 
     42 C          26.3191   31.0227    3.0376 C.2       6 UNK         0.5070 
     43 O          25.8112   32.1188    3.2772 O.2       6 UNK        -0.5237 
     44 N          27.1300   30.7950    1.9959 N.am      7 UNK        -0.4739 
     45 CA         27.5843   31.7848    1.0139 C.3       7 UNK         0.0276 
     46 CB         28.0907   31.0413   -0.2356 C.3       7 UNK        -0.1927 
     47 C          28.6365   32.7624    1.5841 C.2       7 UNK         0.5013 
     48 O          29.7016   32.9375    0.9902 O.2       7 UNK        -0.5193 
     49 N          28.3064   33.3860    2.7240 N.am      8 UNK        -0.4253 
     50 CA         29.0740   34.3959    3.4610 C.3       8 UNK         0.0242 
     51 CB         29.1175   35.7190    2.6660 C.3       8 UNK        -0.2000 
     52 C          30.4714   33.9193    3.9081 C.2       8 UNK         0.4948 
     53 O          31.4151   34.7119    3.8844 O.2       8 UNK        -0.5275 
     54 N          30.5696   32.6464    4.3264 N.am      9 UNK        -0.4246 
     55 CA         31.7792   31.9644    4.8041 C.3       9 UNK         0.0261 
     56 CB         32.2028   32.5105    6.1840 C.3       9 UNK        -0.1959 
     57 C          32.9232   31.9807    3.7719 C.2       9 UNK         0.5033 
     58 O          34.0018   32.5130    4.0452 O.2       9 UNK        -0.5390 
     59 N          32.6609   31.3972    2.5947 N.am      10 UNK        -0.4215 
     60 CA         33.6407   31.2273    1.5183 C.3       10 UNK         0.0240 
     61 CB         32.9180   30.8561    0.2136 C.3       10 UNK        -0.1982 
     62 C          34.7290   30.1972    1.8732 C.2       10 UNK         0.4970 
     63 O          35.8837   30.3871    1.4894 O.2       10 UNK        -0.4916 
     64 N          34.3527   29.1562    2.6276 N.am      11 UNK        -0.4279 
     65 CA         35.2835   28.2621    3.3278 C.3       11 UNK         0.1003 
     66 C          35.7364   28.9211    4.6569 C.2       11 UNK         0.5709 
     67 N          37.0315   28.9321    4.9406 N.am      11 UNK        -0.7358 
     68 O          34.9170   29.3829    5.4490 O.2       11 UNK        -0.4999 
     69 C69        34.6495   26.8734    3.5963 C.3       12 UNK        -0.0954 
     70 S70        34.5849   25.8404    2.0965 S.3       12 UNK        -0.2268 
     71 C71        34.2078   24.2014    2.7992 C.3       12 UNK         0.0203 
     72 H72        25.8791   16.6324   -1.7739 H         1 UNK         0.0888 
     73 H73        25.1623   16.7865   -0.1673 H         1 UNK         0.0888 
     74 H74        24.7892   17.9740   -1.4181 H         1 UNK         0.0888 
     75 H75        25.9144   19.9171   -1.1618 H         1 UNK         0.3017 
     76 H76        28.7212   19.9892   -0.6494 H         1 UNK         0.0873 
     77 H77        27.0590   21.5761    1.3897 H         1 UNK         0.0745 
     78 H78        27.4396   19.9231    1.7243 H         1 UNK         0.0745 
     79 H79        29.4807   23.4499    0.9906 H         1 UNK         0.0705 
     80 H80        28.3729   23.2877    2.3399 H         1 UNK         0.0705 
     81 H81        32.0175   23.2840    1.4427 H         1 UNK         0.1334 
     82 H82        33.2043   24.8863    5.2395 H         1 UNK         0.1417 
     83 H83        29.0982   23.8874    4.5311 H         1 UNK         0.1562 
     84 H84        31.4609   24.4318    7.1387 H         1 UNK         0.0748 
     85 H85        29.7729   24.5896    6.7322 H         1 UNK         0.0748 
     86 H86        28.8180   27.7688    6.8143 H         1 UNK         0.0940 
     87 H87        28.7065   26.4967    5.6321 H         1 UNK         0.0940 
     88 H88        30.4380   28.9349    5.0608 H         1 UNK         0.0703 
     89 H89        29.5217   26.7640    3.4195 H         1 UNK         0.3081 
     90 H90        30.0624   28.4144    0.3073 H         1 UNK         0.0719 
     91 H91        32.3736   27.7006    0.9539 H         1 UNK         0.0809 
     92 H92        31.6195   26.5480   -0.1326 H         1 UNK         0.0809 
     93 H93        31.7241   26.2047    1.5937 H         1 UNK         0.0809 
     94 H94        29.4307   25.7418    0.6693 H         1 UNK         0.2990 
     95 H95        26.6662   25.2535    1.5242 H         1 UNK         0.0690 
     96 H96        24.8679   25.4051   -0.2270 H         1 UNK         0.0788 
     97 H97        25.6503   26.8398   -0.8896 H         1 UNK         0.0788 
     98 H98        24.9916   26.8656    0.7374 H         1 UNK         0.0788 
     99 H99        27.5421   23.8204    0.0847 H         1 UNK         0.2993 
    100 H100       28.1261   23.5265   -3.1611 H         1 UNK         0.0949 
    101 H101       30.6049   23.2554   -3.0740 H         1 UNK         0.0767 
    102 H102       30.1764   24.9528   -3.1644 H         1 UNK         0.0767 
    103 H103       30.6843   24.2644   -1.6289 H         1 UNK         0.0767 
    104 H104       29.5090   22.1905   -1.0215 H         1 UNK         0.3013 
    105 H105       27.2297   28.0984    3.7127 H         1 UNK         0.3121 
    106 H106       25.8249   30.2718    4.9762 H         1 UNK         0.0774 
    107 H107       25.0633   28.5525    2.5534 H         1 UNK         0.0815 
    108 H108       23.9812   29.6083    3.4467 H         1 UNK         0.0815 
    109 H109       24.6647   28.1959    4.2345 H         1 UNK         0.0815 
    110 H110       27.4477   29.8404    1.8484 H         1 UNK         0.2987 
    111 H111       26.7231   32.3863    0.7154 H         1 UNK         0.0949 
    112 H112       28.9861   30.4602   -0.0160 H         1 UNK         0.0806 
    113 H113       27.3361   30.3596   -0.6289 H         1 UNK         0.0806 
    114 H114       28.3437   31.7413   -1.0328 H         1 UNK         0.0806 
    115 H115       27.4031   33.1372    3.1214 H         1 UNK         0.3010 
    116 H116       28.5174   34.5849    4.3802 H         1 UNK         0.0829 
    117 H117       29.7034   35.6201    1.7515 H         1 UNK         0.0813 
    118 H118       28.1165   36.0496    2.3893 H         1 UNK         0.0813 
    119 H119       29.5681   36.5179    3.2564 H         1 UNK         0.0813 
    120 H120       29.7313   32.0759    4.3180 H         1 UNK         0.3038 
    121 H121       31.5103   30.9182    4.9417 H         1 UNK         0.0769 
    122 H122       33.0537   31.9519    6.5766 H         1 UNK         0.0811 
    123 H123       32.4977   33.5591    6.1338 H         1 UNK         0.0811 
    124 H124       31.3943   32.4225    6.9096 H         1 UNK         0.0811 
    125 H125       31.7539   30.9485    2.4640 H         1 UNK         0.3204 
    126 H126       34.1379   32.1873    1.3638 H         1 UNK         0.0748 
    127 H127       33.6278   30.7259   -0.6044 H         1 UNK         0.0771 
    128 H128       32.3532   29.9300    0.3090 H         1 UNK         0.0771 
    129 H129       32.2189   31.6386   -0.0836 H         1 UNK         0.0771 
    130 H130       33.3903   29.1068    2.9240 H         1 UNK         0.2980 
    131 H131       36.1678   28.1149    2.7039 H         1 UNK         0.0545 
    132 H132       37.3381   29.3433    5.8083 H         1 UNK         0.3459 
    133 H133       37.7096   28.5460    4.3021 H         1 UNK         0.3459 
    134 H134       35.2283   26.3248    4.3421 H         1 UNK         0.0616 
    135 H135       33.6430   26.9840    4.0037 H         1 UNK         0.0616 
    136 H136       34.3921   23.4454    2.0345 H         1 UNK         0.0634 
    137 H137       34.8995   23.9822    3.6139 H         1 UNK         0.0634 
@<TRIPOS>BOND
     1    1    2 1    
     2    1   72 1    
     3    1   73 1    
     4    1   74 1    
     5    2    3 2    
     6    2    4 am   BACKBONE|DICT|INTERRES
     7    4    5 1    
     8    4   75 1    
     9    5    6 1    
    10    5   35 1    
    11    5   76 1    
    12    6    7 1    
    13    6   77 1    
    14    6   78 1    
    15    7    8 1    
    16    8    9 1    
    17    8   79 1    
    18    8   80 1    
    19    9   10 ar   
    20    9   14 ar   
    21   10   11 ar   
    22   10   81 1    
    23   11   12 ar   
    24   11   71 1    
    25   12   13 ar   
    26   12   82 1    
    27   13   14 ar   
    28   13   15 1    
    29   14   83 1    
    30   15   16 1    
    31   15   84 1    
    32   15   85 1    
    33   16   17 1    
    34   17   18 1    
    35   17   86 1    
    36   17   87 1    
    37   18   19 1    
    38   18   37 1    
    39   18   88 1    
    40   19   20 am   BACKBONE|DICT|INTERRES
    41   19   89 1    
    42   20   21 2    
    43   20   22 1    
    44   22   23 1    
    45   22   24 1    
    46   22   90 1    
    47   23   91 1    
    48   23   92 1    
    49   23   93 1    
    50   24   25 am   BACKBONE|DICT|INTERRES
    51   24   94 1    
    52   25   26 2    
    53   25   27 1    
    54   27   28 1    
    55   27   29 1    
    56   27   95 1    
    57   28   96 1    
    58   28   97 1    
    59   28   98 1    
    60   29   30 am   BACKBONE|DICT|INTERRES
    61   29   99 1    
    62   30   31 2    
    63   30   32 1    
    64   32   33 1    
    65   32   34 1    
    66   32  100 1    
    67   33  101 1    
    68   33  102 1    
    69   33  103 1    
    70   34   35 am   BACKBONE|DICT|INTERRES
    71   34  104 1    
    72   35   36 2    
    73   37   38 2    
    74   37   39 am   BACKBONE|DICT|INTERRES
    75   39   40 1    
    76   39  105 1    
    77   40   41 1    
    78   40   42 1    
    79   40  106 1    
    80   41  107 1    
    81   41  108 1    
    82   41  109 1    
    83   42   43 2    
    84   42   44 am   BACKBONE|DICT|INTERRES
    85   44   45 1    
    86   44  110 1    
    87   45   46 1    
    88   45   47 1    
    89   45  111 1    
    90   46  112 1    
    91   46  113 1    
    92   46  114 1    
    93   47   48 2    
    94   47   49 am   BACKBONE|DICT|INTERRES
    95   49   50 1    
    96   49  115 1    
    97   50   51 1    
    98   50   52 1    
    99   50  116 1    
   100   51  117 1    
   101   51  118 1    
   102   51  119 1    
   103   52   53 2    
   104   52   54 am   BACKBONE|DICT|INTERRES
   105   54   55 1    
   106   54  120 1    
   107   55   56 1    
   108   55   57 1    
   109   55  121 1    
   110   56  122 1    
   111   56  123 1    
   112   56  124 1    
   113   57   58 2    
   114   57   59 am   BACKBONE|DICT|INTERRES
   115   59   60 1    
   116   59  125 1    
   117   60   61 1    
   118   60   62 1    
   119   60  126 1    
   120   61  127 1    
   121   61  128 1    
   122   61  129 1    
   123   62   63 2    
   124   62   64 am   BACKBONE|DICT|INTERRES
   125   64   65 1    
   126   64  130 1    
   127   65   66 1    
   128   65   69 1    
   129   65  131 1    
   130   66   67 am   BACKBONE|DICT|INTERRES
   131   66   68 2    
   132   67  132 1    
   133   67  133 1    
   134   69   70 1    
   135   69  134 1    
   136   69  135 1    
   137   70   71 1    
   138   71  136 1    
   139   71  137 1    
@<TRIPOS>SUBSTRUCTURE
     1 UNK         1 GROUP             0       ****    0 ROOT    
