@<TRIPOS>MOLECULE
3R136
137   139    1
SMALL
USER_CHARGES


@<TRIPOS>ATOM
      1 CA         25.5035   20.5584    0.9381 C.3       0 UNK        -0.1979 
      2 C          26.8523   21.2439    1.0946 C.2       0 UNK         0.4864 
      3 O          27.3710   21.3178    2.2097 O.2       0 UNK        -0.5359 
      4 N          27.4115   21.7584   -0.0114 N.am      1 UNK        -0.4318 
      5 CA         28.6911   22.4761   -0.1005 C.3       1 UNK         0.0824 
      6 C6         29.9206   21.5226    0.0136 C.3       12 UNK        -0.0944 
      7 S7         31.2106   21.8941   -1.2208 S.3       12 UNK        -0.2672 
      8 C8         32.4296   22.8719   -0.2729 C.3       12 UNK         0.0333 
      9 C9         32.1153   24.3633   -0.1364 C.ar      12 UNK        -0.0807 
     10 C10        32.7040   25.0794    0.9110 C.ar      12 UNK        -0.0894 
     11 C11        32.4824   26.4519    1.0570 C.ar      12 UNK        -0.0804 
     12 C12        31.6341   27.1081    0.1608 C.ar      12 UNK        -0.0824 
     13 C13        31.0502   26.4161   -0.9051 C.ar      12 UNK        -0.0762 
     14 C14        31.3090   25.0494   -1.0552 C.ar      12 UNK        -0.0782 
     15 C15        30.1875   27.1557   -1.9238 C.3       12 UNK         0.0230 
     16 S16        28.5383   26.3987   -2.1188 S.3       12 UNK        -0.2608 
     17 C17        27.4103   27.8293   -1.9423 C.3       12 UNK        -0.0989 
     18 CA         26.8444   28.0472   -0.5106 C.3       5 UNK         0.0716 
     19 N          26.2423   26.8339    0.0412 N.am      5 UNK        -0.4135 
     20 C          24.9346   26.5565    0.0565 C.2       4 UNK         0.5031 
     21 O          24.0685   27.3229   -0.3687 O.2       4 UNK        -0.5229 
     22 CA         24.5014   25.1965    0.6247 C.3       4 UNK         0.0329 
     23 CB         24.5813   24.1195   -0.4701 C.3       4 UNK        -0.2001 
     24 N          25.3148   24.7786    1.7697 N.am      4 UNK        -0.4303 
     25 C          24.8899   24.7470    3.0415 C.2       3 UNK         0.5044 
     26 O          23.7723   25.1276    3.3931 O.2       3 UNK        -0.5152 
     27 CA         25.8364   24.1686    4.1126 C.3       3 UNK         0.0319 
     28 CB         25.3102   22.8153    4.6199 C.3       3 UNK        -0.2001 
     29 N          27.2080   23.9909    3.6326 N.am      3 UNK        -0.4354 
     30 C          28.1585   24.9354    3.6969 C.2       2 UNK         0.4964 
     31 O          28.0048   26.0131    4.2704 O.2       2 UNK        -0.5047 
     32 CA         29.5118   24.6329    3.0209 C.3       2 UNK         0.0288 
     33 CB         30.5299   24.1652    4.0738 C.3       2 UNK        -0.2113 
     34 N          29.4593   23.6305    1.9524 N.am      2 UNK        -0.4145 
     35 C          28.6905   23.6888    0.8564 C.2       1 UNK         0.5006 
     36 O          27.9159   24.6160    0.6249 O.2       1 UNK        -0.5103 
     37 C          27.9094   28.5837    0.4583 C.2       5 UNK         0.5055 
     38 O          28.4285   27.8325    1.2845 O.2       5 UNK        -0.5220 
     39 N          28.2269   29.8753    0.3120 N.am      6 UNK        -0.4450 
     40 CA         29.3151   30.5575    1.0081 C.3       6 UNK         0.0367 
     41 CB         28.7793   31.8497    1.6456 C.3       6 UNK        -0.1929 
     42 C          30.4301   30.8758    0.0038 C.2       6 UNK         0.5070 
     43 O          30.1558   31.0250   -1.1895 O.2       6 UNK        -0.5237 
     44 N          31.6619   30.9925    0.5063 N.am      7 UNK        -0.4739 
     45 CA         32.8504   31.3625   -0.2625 C.3       7 UNK         0.0276 
     46 CB         33.3671   30.1826   -1.1125 C.3       7 UNK        -0.1927 
     47 C          33.8974   31.8782    0.7252 C.2       7 UNK         0.5013 
     48 O          34.2160   33.0675    0.7182 O.2       7 UNK        -0.5193 
     49 N          34.3451   30.9814    1.6129 N.am      8 UNK        -0.4253 
     50 CA         35.0418   31.3235    2.8509 C.3       8 UNK         0.0242 
     51 CB         35.7761   30.0773    3.3733 C.3       8 UNK        -0.2000 
     52 C          34.0199   31.8091    3.8894 C.2       8 UNK         0.4948 
     53 O          32.8712   31.3577    3.8609 O.2       8 UNK        -0.5275 
     54 N          34.4609   32.6742    4.8130 N.am      9 UNK        -0.4246 
     55 CA         33.6316   33.2582    5.8766 C.3       9 UNK         0.0261 
     56 CB         34.4620   34.2741    6.6774 C.3       9 UNK        -0.1959 
     57 C          32.9962   32.2190    6.8181 C.2       9 UNK         0.5033 
     58 O          31.8714   32.4249    7.2755 O.2       9 UNK        -0.5390 
     59 N          33.7007   31.1009    7.0446 N.am      10 UNK        -0.4215 
     60 CA         33.2252   29.9417    7.8057 C.3       10 UNK         0.0240 
     61 CB         34.3874   28.9522    7.9909 C.3       10 UNK        -0.1982 
     62 C          32.0135   29.2305    7.1715 C.2       10 UNK         0.4970 
     63 O          31.2607   28.5796    7.8971 O.2       10 UNK        -0.4916 
     64 N          31.8432   29.3700    5.8508 N.am      11 UNK        -0.4279 
     65 CA         30.6990   28.8505    5.0889 C.3       11 UNK         0.1003 
     66 C          29.5191   29.8651    5.0015 C.2       11 UNK         0.5709 
     67 N          29.6188   31.0672    5.5608 N.am      11 UNK        -0.7358 
     68 O          28.4775   29.5551    4.4324 O.2       11 UNK        -0.4999 
     69 C69        31.1345   28.3439    3.6874 C.3       12 UNK        -0.0954 
     70 S70        32.4444   27.0782    3.7729 S.3       12 UNK        -0.2268 
     71 C71        33.2211   27.2302    2.1379 C.3       12 UNK         0.0203 
     72 H72        25.1769   20.5315   -0.1013 H         1 UNK         0.0888 
     73 H73        25.5606   19.5328    1.3020 H         1 UNK         0.0888 
     74 H74        24.7460   21.0846    1.5182 H         1 UNK         0.0888 
     75 H75        26.9139   21.6765   -0.8870 H         1 UNK         0.3017 
     76 H76        28.6875   22.9083   -1.1029 H         1 UNK         0.0873 
     77 H77        30.3469   21.4539    1.0140 H         1 UNK         0.0745 
     78 H78        29.6056   20.5016   -0.2086 H         1 UNK         0.0745 
     79 H79        32.5559   22.4211    0.7126 H         1 UNK         0.0705 
     80 H80        33.3939   22.7808   -0.7742 H         1 UNK         0.0705 
     81 H81        33.3593   24.5723    1.6062 H         1 UNK         0.1334 
     82 H82        31.4535   28.1658    0.2759 H         1 UNK         0.1417 
     83 H83        30.8729   24.5279   -1.8953 H         1 UNK         0.1562 
     84 H84        30.6940   27.1475   -2.8896 H         1 UNK         0.0748 
     85 H85        30.0872   28.2047   -1.6442 H         1 UNK         0.0748 
     86 H86        26.5739   27.6566   -2.6213 H         1 UNK         0.0940 
     87 H87        27.8951   28.7320   -2.3189 H         1 UNK         0.0940 
     88 H88        26.0783   28.8235   -0.5698 H         1 UNK         0.0703 
     89 H89        26.9148   26.1543    0.3936 H         1 UNK         0.3081 
     90 H90        23.4541   25.2874    0.9202 H         1 UNK         0.0719 
     91 H91        25.6016   23.9835   -0.8303 H         1 UNK         0.0809 
     92 H92        24.2191   23.1583   -0.1068 H         1 UNK         0.0809 
     93 H93        23.9673   24.3919   -1.3297 H         1 UNK         0.0809 
     94 H94        26.2784   24.5306    1.5649 H         1 UNK         0.2990 
     95 H95        25.8332   24.8627    4.9557 H         1 UNK         0.0690 
     96 H96        25.9477   22.4120    5.4069 H         1 UNK         0.0788 
     97 H97        25.2567   22.0758    3.8208 H         1 UNK         0.0788 
     98 H98        24.3073   22.9166    5.0370 H         1 UNK         0.0788 
     99 H99        27.4160   23.1122    3.1659 H         1 UNK         0.2993 
    100 H100       29.8650   25.5647    2.5733 H         1 UNK         0.0949 
    101 H101       31.5246   24.0542    3.6417 H         1 UNK         0.0767 
    102 H102       30.6111   24.8889    4.8861 H         1 UNK         0.0767 
    103 H103       30.2439   23.2102    4.5161 H         1 UNK         0.0767 
    104 H104       30.0229   22.8061    2.0915 H         1 UNK         0.3013 
    105 H105       27.8061   30.4000   -0.4425 H         1 UNK         0.3121 
    106 H106       29.7185   29.9221    1.7958 H         1 UNK         0.0774 
    107 H107       29.5646   32.3676    2.1981 H         1 UNK         0.0815 
    108 H108       28.3917   32.5425    0.8976 H         1 UNK         0.0815 
    109 H109       27.9780   31.6350    2.3530 H         1 UNK         0.0815 
    110 H110       31.7910   30.9471    1.5103 H         1 UNK         0.2987 
    111 H111       32.5943   32.1875   -0.9317 H         1 UNK         0.0949 
    112 H112       33.5964   29.3038   -0.5105 H         1 UNK         0.0806 
    113 H113       32.6355   29.8852   -1.8639 H         1 UNK         0.0806 
    114 H114       34.2778   30.4592   -1.6453 H         1 UNK         0.0806 
    115 H115       34.0083   30.0346    1.5430 H         1 UNK         0.3010 
    116 H116       35.7675   32.1154    2.6524 H         1 UNK         0.0829 
    117 H117       36.4750   29.6889    2.6322 H         1 UNK         0.0813 
    118 H118       36.3539   30.3098    4.2687 H         1 UNK         0.0813 
    119 H119       35.0834   29.2753    3.6333 H         1 UNK         0.0813 
    120 H120       35.4215   32.9844    4.7687 H         1 UNK         0.3038 
    121 H121       32.8131   33.7942    5.3913 H         1 UNK         0.0769 
    122 H122       35.3205   33.8055    7.1602 H         1 UNK         0.0811 
    123 H123       33.8607   34.7377    7.4610 H         1 UNK         0.0811 
    124 H124       34.8312   35.0771    6.0392 H         1 UNK         0.0811 
    125 H125       34.6163   31.0258    6.6264 H         1 UNK         0.3204 
    126 H126       32.9147   30.2966    8.7907 H         1 UNK         0.0748 
    127 H127       34.0755   28.0901    8.5823 H         1 UNK         0.0771 
    128 H128       34.7527   28.5752    7.0344 H         1 UNK         0.0771 
    129 H129       35.2249   29.4146    8.5139 H         1 UNK         0.0771 
    130 H130       32.4675   29.9699    5.3246 H         1 UNK         0.2980 
    131 H131       30.2938   27.9865    5.6189 H         1 UNK         0.0545 
    132 H132       30.4542   31.3484    6.0573 H         1 UNK         0.3459 
    133 H133       28.8375   31.6994    5.4990 H         1 UNK         0.3459 
    134 H134       30.2872   27.9080    3.1573 H         1 UNK         0.0616 
    135 H135       31.4908   29.1776    3.0830 H         1 UNK         0.0616 
    136 H136       34.2441   26.8582    2.2096 H         1 UNK         0.0634 
    137 H137       33.3050   28.2818    1.8666 H         1 UNK         0.0634 
@<TRIPOS>BOND
     1    1    2 1    
     2    1   72 1    
     3    1   73 1    
     4    1   74 1    
     5    2    3 2    
     6    2    4 am   BACKBONE|DICT|INTERRES
     7    4    5 1    
     8    4   75 1    
     9    5    6 1    
    10    5   35 1    
    11    5   76 1    
    12    6    7 1    
    13    6   77 1    
    14    6   78 1    
    15    7    8 1    
    16    8    9 1    
    17    8   79 1    
    18    8   80 1    
    19    9   10 ar   
    20    9   14 ar   
    21   10   11 ar   
    22   10   81 1    
    23   11   12 ar   
    24   11   71 1    
    25   12   13 ar   
    26   12   82 1    
    27   13   14 ar   
    28   13   15 1    
    29   14   83 1    
    30   15   16 1    
    31   15   84 1    
    32   15   85 1    
    33   16   17 1    
    34   17   18 1    
    35   17   86 1    
    36   17   87 1    
    37   18   19 1    
    38   18   37 1    
    39   18   88 1    
    40   19   20 am   BACKBONE|DICT|INTERRES
    41   19   89 1    
    42   20   21 2    
    43   20   22 1    
    44   22   23 1    
    45   22   24 1    
    46   22   90 1    
    47   23   91 1    
    48   23   92 1    
    49   23   93 1    
    50   24   25 am   BACKBONE|DICT|INTERRES
    51   24   94 1    
    52   25   26 2    
    53   25   27 1    
    54   27   28 1    
    55   27   29 1    
    56   27   95 1    
    57   28   96 1    
    58   28   97 1    
    59   28   98 1    
    60   29   30 am   BACKBONE|DICT|INTERRES
    61   29   99 1    
    62   30   31 2    
    63   30   32 1    
    64   32   33 1    
    65   32   34 1    
    66   32  100 1    
    67   33  101 1    
    68   33  102 1    
    69   33  103 1    
    70   34   35 am   BACKBONE|DICT|INTERRES
    71   34  104 1    
    72   35   36 2    
    73   37   38 2    
    74   37   39 am   BACKBONE|DICT|INTERRES
    75   39   40 1    
    76   39  105 1    
    77   40   41 1    
    78   40   42 1    
    79   40  106 1    
    80   41  107 1    
    81   41  108 1    
    82   41  109 1    
    83   42   43 2    
    84   42   44 am   BACKBONE|DICT|INTERRES
    85   44   45 1    
    86   44  110 1    
    87   45   46 1    
    88   45   47 1    
    89   45  111 1    
    90   46  112 1    
    91   46  113 1    
    92   46  114 1    
    93   47   48 2    
    94   47   49 am   BACKBONE|DICT|INTERRES
    95   49   50 1    
    96   49  115 1    
    97   50   51 1    
    98   50   52 1    
    99   50  116 1    
   100   51  117 1    
   101   51  118 1    
   102   51  119 1    
   103   52   53 2    
   104   52   54 am   BACKBONE|DICT|INTERRES
   105   54   55 1    
   106   54  120 1    
   107   55   56 1    
   108   55   57 1    
   109   55  121 1    
   110   56  122 1    
   111   56  123 1    
   112   56  124 1    
   113   57   58 2    
   114   57   59 am   BACKBONE|DICT|INTERRES
   115   59   60 1    
   116   59  125 1    
   117   60   61 1    
   118   60   62 1    
   119   60  126 1    
   120   61  127 1    
   121   61  128 1    
   122   61  129 1    
   123   62   63 2    
   124   62   64 am   BACKBONE|DICT|INTERRES
   125   64   65 1    
   126   64  130 1    
   127   65   66 1    
   128   65   69 1    
   129   65  131 1    
   130   66   67 am   BACKBONE|DICT|INTERRES
   131   66   68 2    
   132   67  132 1    
   133   67  133 1    
   134   69   70 1    
   135   69  134 1    
   136   69  135 1    
   137   70   71 1    
   138   71  136 1    
   139   71  137 1    
@<TRIPOS>SUBSTRUCTURE
     1 UNK         1 GROUP             0       ****    0 ROOT    
