@<TRIPOS>MOLECULE
3R136
137   139    1
SMALL
USER_CHARGES


@<TRIPOS>ATOM
      1 CA         29.4503   21.6805   -3.2583 C.3       0 UNK        -0.1979 
      2 C          29.1868   22.0694   -1.8126 C.2       0 UNK         0.4864 
      3 O          28.5245   23.0794   -1.5661 O.2       0 UNK        -0.5359 
      4 N          29.6819   21.2710   -0.8564 N.am      1 UNK        -0.4318 
      5 CA         29.6070   21.4665    0.6016 C.3       1 UNK         0.0824 
      6 C6         30.6456   20.5737    1.3295 C.3       12 UNK        -0.0944 
      7 S7         32.3592   21.0750    0.9507 S.3       12 UNK        -0.2672 
      8 C8         32.8984   21.7902    2.5380 C.3       12 UNK         0.0333 
      9 C9         32.2937   23.1653    2.7933 C.ar      12 UNK        -0.0807 
     10 C10        32.9769   24.3186    2.3936 C.ar      12 UNK        -0.0894 
     11 C11        32.4564   25.5883    2.6680 C.ar      12 UNK        -0.0804 
     12 C12        31.2320   25.6945    3.3365 C.ar      12 UNK        -0.0824 
     13 C13        30.5245   24.5504    3.7141 C.ar      12 UNK        -0.0762 
     14 C14        31.0686   23.2896    3.4558 C.ar      12 UNK        -0.0782 
     15 C15        29.1720   24.6681    4.3993 C.3       12 UNK         0.0230 
     16 S16        27.8230   24.5577    3.1805 S.3       12 UNK        -0.2608 
     17 C17        27.0941   26.2295    3.2416 C.3       12 UNK        -0.0989 
     18 CA         27.7831   27.2289    2.2815 C.3       5 UNK         0.0716 
     19 N          27.7560   26.7719    0.8897 N.am      5 UNK        -0.4135 
     20 C          28.3480   27.3825   -0.1469 C.2       4 UNK         0.5031 
     21 O          28.9550   28.4502   -0.0627 O.2       4 UNK        -0.5229 
     22 CA         28.2987   26.6768   -1.5120 C.3       4 UNK         0.0329 
     23 CB         29.6764   26.0748   -1.8367 C.3       4 UNK        -0.2001 
     24 N          27.2806   25.6262   -1.6025 N.am      4 UNK        -0.4303 
     25 C          25.9686   25.8539   -1.7622 C.2       3 UNK         0.5044 
     26 O          25.4730   26.9790   -1.8274 O.2       3 UNK        -0.5152 
     27 CA         25.0515   24.6250   -1.8814 C.3       3 UNK         0.0319 
     28 CB         24.9876   24.1454   -3.3407 C.3       3 UNK        -0.2001 
     29 N          25.4705   23.5119   -1.0287 N.am      3 UNK        -0.4354 
     30 C          25.2784   23.4488    0.2974 C.2       2 UNK         0.4964 
     31 O          24.7171   24.3247    0.9543 O.2       2 UNK        -0.5047 
     32 CA         25.8424   22.2111    1.0041 C.3       2 UNK         0.0288 
     33 CB         25.0140   20.9519    0.6823 C.3       2 UNK        -0.2113 
     34 N          27.2354   22.0510    0.6037 N.am      2 UNK        -0.4145 
     35 C          28.1758   21.2950    1.1715 C.2       1 UNK         0.5006 
     36 O          27.9555   20.5121    2.0981 O.2       1 UNK        -0.5103 
     37 C          27.1823   28.6401    2.4471 C.2       5 UNK         0.5055 
     38 O          26.1381   28.9404    1.8632 O.2       5 UNK        -0.5220 
     39 N          27.8441   29.4626    3.2656 N.am      6 UNK        -0.4450 
     40 CA         27.4832   30.8374    3.5909 C.3       6 UNK         0.0367 
     41 CB         27.9369   31.7834    2.4624 C.3       6 UNK        -0.1929 
     42 C          28.1566   31.1919    4.9218 C.2       6 UNK         0.5070 
     43 O          29.0271   30.4483    5.3838 O.2       6 UNK        -0.5237 
     44 N          27.7610   32.3244    5.5135 N.am      7 UNK        -0.4739 
     45 CA         28.2623   32.8302    6.7966 C.3       7 UNK         0.0276 
     46 CB         27.2042   33.7719    7.4031 C.3       7 UNK        -0.1927 
     47 C          29.6513   33.4949    6.6798 C.2       7 UNK         0.5013 
     48 O          29.8135   34.6573    7.0570 O.2       7 UNK        -0.5193 
     49 N          30.6299   32.7489    6.1595 N.am      8 UNK        -0.4253 
     50 CA         32.0298   33.1384    6.0227 C.3       8 UNK         0.0242 
     51 CB         32.2200   34.0044    4.7630 C.3       8 UNK        -0.2000 
     52 C          32.8690   31.8624    5.9309 C.2       8 UNK         0.4948 
     53 O          32.3978   30.8748    5.3643 O.2       8 UNK        -0.5275 
     54 N          34.1104   31.9096    6.4332 N.am      9 UNK        -0.4246 
     55 CA         35.0556   30.7833    6.4154 C.3       9 UNK         0.0261 
     56 CB         36.3008   31.1442    7.2417 C.3       9 UNK        -0.1959 
     57 C          35.4590   30.3341    4.9981 C.2       9 UNK         0.5033 
     58 O          35.6850   29.1437    4.7793 O.2       9 UNK        -0.5390 
     59 N          35.5132   31.2907    4.0619 N.am      10 UNK        -0.4215 
     60 CA         35.7457   31.0564    2.6345 C.3       10 UNK         0.0240 
     61 CB         36.3746   32.3225    2.0264 C.3       10 UNK        -0.1982 
     62 C          34.4684   30.6642    1.8631 C.2       10 UNK         0.4970 
     63 O          34.5833   30.3119    0.6888 O.2       10 UNK        -0.4916 
     64 N          33.3004   30.7516    2.5197 N.am      11 UNK        -0.4279 
     65 CA         31.9409   30.5311    2.0014 C.3       11 UNK         0.1003 
     66 C          31.6064   31.2550    0.6601 C.2       11 UNK         0.5709 
     67 N          30.6825   30.7521   -0.1478 N.am      11 UNK        -0.7358 
     68 O          32.1279   32.3332    0.3801 O.2       11 UNK        -0.4999 
     69 C69        31.4753   29.0543    2.1387 C.3       12 UNK        -0.0954 
     70 S70        32.3238   27.8536    1.0528 S.3       12 UNK        -0.2268 
     71 C71        33.2327   26.8365    2.2605 C.3       12 UNK         0.0203 
     72 H72        28.5077   21.5140   -3.7788 H         1 UNK         0.0888 
     73 H73        29.9841   22.4823   -3.7677 H         1 UNK         0.0888 
     74 H74        30.0475   20.7721   -3.3347 H         1 UNK         0.0888 
     75 H75        30.2022   20.4529   -1.1393 H         1 UNK         0.3017 
     76 H76        29.8726   22.5074    0.8020 H         1 UNK         0.0873 
     77 H77        30.5058   20.5942    2.4105 H         1 UNK         0.0745 
     78 H78        30.5176   19.5289    1.0407 H         1 UNK         0.0745 
     79 H79        33.9869   21.8647    2.5304 H         1 UNK         0.0705 
     80 H80        32.6535   21.1084    3.3539 H         1 UNK         0.0705 
     81 H81        33.9250   24.2251    1.8815 H         1 UNK         0.1334 
     82 H82        30.8241   26.6682    3.5581 H         1 UNK         0.1417 
     83 H83        30.5307   22.4067    3.7711 H         1 UNK         0.1562 
     84 H84        29.1126   25.5988    4.9650 H         1 UNK         0.0748 
     85 H85        29.0540   23.8647    5.1280 H         1 UNK         0.0748 
     86 H86        27.1207   26.5914    4.2713 H         1 UNK         0.0940 
     87 H87        26.0355   26.1371    2.9883 H         1 UNK         0.0940 
     88 H88        28.8361   27.2833    2.5576 H         1 UNK         0.0703 
     89 H89        27.2648   25.9082    0.7183 H         1 UNK         0.3081 
     90 H90        28.0760   27.4371   -2.2636 H         1 UNK         0.0719 
     91 H91        30.4461   26.8480   -1.8531 H         1 UNK         0.0809 
     92 H92        29.6808   25.5903   -2.8132 H         1 UNK         0.0809 
     93 H93        29.9781   25.3359   -1.0929 H         1 UNK         0.0809 
     94 H94        27.6245   24.6674   -1.5914 H         1 UNK         0.2990 
     95 H95        24.0466   24.9301   -1.5808 H         1 UNK         0.0690 
     96 H96        24.2812   23.3233   -3.4575 H         1 UNK         0.0788 
     97 H97        25.9609   23.8063   -3.6983 H         1 UNK         0.0788 
     98 H98        24.6592   24.9491   -4.0013 H         1 UNK         0.0788 
     99 H99        25.9409   22.7463   -1.4900 H         1 UNK         0.2993 
    100 H100       25.8111   22.3931    2.0805 H         1 UNK         0.0949 
    101 H101       23.9619   21.1056    0.9261 H         1 UNK         0.0767 
    102 H102       25.0712   20.6861   -0.3738 H         1 UNK         0.0767 
    103 H103       25.3549   20.0929    1.2603 H         1 UNK         0.0767 
    104 H104       27.5538   22.6449   -0.1612 H         1 UNK         0.3013 
    105 H105       28.6443   29.1327    3.7932 H         1 UNK         0.3121 
    106 H106       26.4011   30.9047    3.7220 H         1 UNK         0.0774 
    107 H107       27.6433   32.8133    2.6672 H         1 UNK         0.0815 
    108 H108       29.0193   31.7718    2.3385 H         1 UNK         0.0815 
    109 H109       27.4914   31.5070    1.5065 H         1 UNK         0.0815 
    110 H110       27.0688   32.8960    5.0496 H         1 UNK         0.2987 
    111 H111       28.3778   31.9857    7.4801 H         1 UNK         0.0949 
    112 H112       26.2494   33.2632    7.5372 H         1 UNK         0.0806 
    113 H113       27.5160   34.1310    8.3850 H         1 UNK         0.0806 
    114 H114       27.0339   34.6470    6.7747 H         1 UNK         0.0806 
    115 H115       30.4204   31.7919    5.8796 H         1 UNK         0.3010 
    116 H116       32.3343   33.7002    6.9085 H         1 UNK         0.0829 
    117 H117       31.6381   34.9243    4.8220 H         1 UNK         0.0813 
    118 H118       33.2641   34.2928    4.6368 H         1 UNK         0.0813 
    119 H119       31.9139   33.4749    3.8596 H         1 UNK         0.0813 
    120 H120       34.4272   32.7606    6.8770 H         1 UNK         0.3038 
    121 H121       34.5638   29.9340    6.8950 H         1 UNK         0.0769 
    122 H122       36.8245   32.0081    6.8305 H         1 UNK         0.0811 
    123 H123       37.0087   30.3142    7.2623 H         1 UNK         0.0811 
    124 H124       36.0400   31.3692    8.2760 H         1 UNK         0.0811 
    125 H125       35.3315   32.2433    4.3430 H         1 UNK         0.3204 
    126 H126       36.4573   30.2356    2.5209 H         1 UNK         0.0748 
    127 H127       36.6113   32.1744    0.9717 H         1 UNK         0.0771 
    128 H128       35.7022   33.1790    2.0911 H         1 UNK         0.0771 
    129 H129       37.3053   32.5852    2.5299 H         1 UNK         0.0771 
    130 H130       33.3250   30.9939    3.5015 H         1 UNK         0.2980 
    131 H131       31.3266   31.0808    2.7150 H         1 UNK         0.0545 
    132 H132       30.2111   29.8726    0.0495 H         1 UNK         0.3459 
    133 H133       30.4594   31.2490   -0.9943 H         1 UNK         0.3459 
    134 H134       30.4055   28.9853    1.9561 H         1 UNK         0.0616 
    135 H135       31.5985   28.7540    3.1793 H         1 UNK         0.0616 
    136 H136       34.1857   26.5580    1.8084 H         1 UNK         0.0634 
    137 H137       33.4841   27.4249    3.1441 H         1 UNK         0.0634 
@<TRIPOS>BOND
     1    1    2 1    
     2    1   72 1    
     3    1   73 1    
     4    1   74 1    
     5    2    3 2    
     6    2    4 am   BACKBONE|DICT|INTERRES
     7    4    5 1    
     8    4   75 1    
     9    5    6 1    
    10    5   35 1    
    11    5   76 1    
    12    6    7 1    
    13    6   77 1    
    14    6   78 1    
    15    7    8 1    
    16    8    9 1    
    17    8   79 1    
    18    8   80 1    
    19    9   10 ar   
    20    9   14 ar   
    21   10   11 ar   
    22   10   81 1    
    23   11   12 ar   
    24   11   71 1    
    25   12   13 ar   
    26   12   82 1    
    27   13   14 ar   
    28   13   15 1    
    29   14   83 1    
    30   15   16 1    
    31   15   84 1    
    32   15   85 1    
    33   16   17 1    
    34   17   18 1    
    35   17   86 1    
    36   17   87 1    
    37   18   19 1    
    38   18   37 1    
    39   18   88 1    
    40   19   20 am   BACKBONE|DICT|INTERRES
    41   19   89 1    
    42   20   21 2    
    43   20   22 1    
    44   22   23 1    
    45   22   24 1    
    46   22   90 1    
    47   23   91 1    
    48   23   92 1    
    49   23   93 1    
    50   24   25 am   BACKBONE|DICT|INTERRES
    51   24   94 1    
    52   25   26 2    
    53   25   27 1    
    54   27   28 1    
    55   27   29 1    
    56   27   95 1    
    57   28   96 1    
    58   28   97 1    
    59   28   98 1    
    60   29   30 am   BACKBONE|DICT|INTERRES
    61   29   99 1    
    62   30   31 2    
    63   30   32 1    
    64   32   33 1    
    65   32   34 1    
    66   32  100 1    
    67   33  101 1    
    68   33  102 1    
    69   33  103 1    
    70   34   35 am   BACKBONE|DICT|INTERRES
    71   34  104 1    
    72   35   36 2    
    73   37   38 2    
    74   37   39 am   BACKBONE|DICT|INTERRES
    75   39   40 1    
    76   39  105 1    
    77   40   41 1    
    78   40   42 1    
    79   40  106 1    
    80   41  107 1    
    81   41  108 1    
    82   41  109 1    
    83   42   43 2    
    84   42   44 am   BACKBONE|DICT|INTERRES
    85   44   45 1    
    86   44  110 1    
    87   45   46 1    
    88   45   47 1    
    89   45  111 1    
    90   46  112 1    
    91   46  113 1    
    92   46  114 1    
    93   47   48 2    
    94   47   49 am   BACKBONE|DICT|INTERRES
    95   49   50 1    
    96   49  115 1    
    97   50   51 1    
    98   50   52 1    
    99   50  116 1    
   100   51  117 1    
   101   51  118 1    
   102   51  119 1    
   103   52   53 2    
   104   52   54 am   BACKBONE|DICT|INTERRES
   105   54   55 1    
   106   54  120 1    
   107   55   56 1    
   108   55   57 1    
   109   55  121 1    
   110   56  122 1    
   111   56  123 1    
   112   56  124 1    
   113   57   58 2    
   114   57   59 am   BACKBONE|DICT|INTERRES
   115   59   60 1    
   116   59  125 1    
   117   60   61 1    
   118   60   62 1    
   119   60  126 1    
   120   61  127 1    
   121   61  128 1    
   122   61  129 1    
   123   62   63 2    
   124   62   64 am   BACKBONE|DICT|INTERRES
   125   64   65 1    
   126   64  130 1    
   127   65   66 1    
   128   65   69 1    
   129   65  131 1    
   130   66   67 am   BACKBONE|DICT|INTERRES
   131   66   68 2    
   132   67  132 1    
   133   67  133 1    
   134   69   70 1    
   135   69  134 1    
   136   69  135 1    
   137   70   71 1    
   138   71  136 1    
   139   71  137 1    
@<TRIPOS>SUBSTRUCTURE
     1 UNK         1 GROUP             0       ****    0 ROOT    
