@<TRIPOS>MOLECULE
3R136
137   139    1
SMALL
USER_CHARGES


@<TRIPOS>ATOM
      1 CA         34.6681   23.5869    0.3669 C.3       0 UNK        -0.1979 
      2 C          33.2149   24.0363    0.4026 C.2       0 UNK         0.4864 
      3 O          32.9496   25.2268    0.5595 O.2       0 UNK        -0.5359 
      4 N          32.2752   23.0920    0.2661 N.am      1 UNK        -0.4318 
      5 CA         30.8315   23.3415    0.2403 C.3       1 UNK         0.0824 
      6 C6         30.0496   22.0189    0.4451 C.3       12 UNK        -0.0944 
      7 S7         28.3025   22.2668    0.9199 S.3       12 UNK        -0.2672 
      8 C8         28.2931   21.7373    2.6615 C.3       12 UNK         0.0333 
      9 C9         28.6506   22.8812    3.5983 C.ar      12 UNK        -0.0807 
     10 C10        29.9846   23.2534    3.7882 C.ar      12 UNK        -0.0894 
     11 C11        30.3116   24.2995    4.6554 C.ar      12 UNK        -0.0804 
     12 C12        29.2955   24.9684    5.3442 C.ar      12 UNK        -0.0824 
     13 C13        27.9585   24.6011    5.1681 C.ar      12 UNK        -0.0762 
     14 C14        27.6429   23.5562    4.2937 C.ar      12 UNK        -0.0782 
     15 C15        26.8589   25.3152    5.9426 C.3       12 UNK         0.0230 
     16 S16        25.6364   26.1057    4.8492 S.3       12 UNK        -0.2608 
     17 C17        26.6404   27.3777    4.0073 C.3       12 UNK        -0.0989 
     18 CA         27.0351   26.9771    2.5586 C.3       5 UNK         0.0716 
     19 N          25.9191   26.5786    1.6884 N.am      5 UNK        -0.4135 
     20 C          24.7664   27.2224    1.4442 C.2       4 UNK         0.5031 
     21 O          24.4032   28.2457    2.0268 O.2       4 UNK        -0.5229 
     22 CA         23.8533   26.6265    0.3512 C.3       4 UNK         0.0329 
     23 CB         23.2378   27.7279   -0.5316 C.3       4 UNK        -0.2001 
     24 N          24.5590   25.6809   -0.5181 N.am      4 UNK        -0.4303 
     25 C          24.6091   24.3536   -0.3664 C.2       3 UNK         0.5044 
     26 O          24.0361   23.7475    0.5382 O.2       3 UNK        -0.5152 
     27 CA         25.4768   23.5711   -1.3696 C.3       3 UNK         0.0319 
     28 CB         24.7510   23.3883   -2.7170 C.3       3 UNK        -0.2001 
     29 N          26.8345   24.1137   -1.5469 N.am      3 UNK        -0.4354 
     30 C          27.2228   25.2753   -2.0995 C.2       2 UNK         0.4964 
     31 O          26.4371   26.0963   -2.5751 O.2       2 UNK        -0.5047 
     32 CA         28.7308   25.5923   -2.0786 C.3       2 UNK         0.0288 
     33 CB         29.0036   27.1061   -1.9908 C.3       2 UNK        -0.2113 
     34 N          29.3948   24.9169   -0.9593 N.am      2 UNK        -0.4145 
     35 C          30.4066   24.0465   -1.0664 C.2       1 UNK         0.5006 
     36 O          30.9557   23.7507   -2.1314 O.2       1 UNK        -0.5103 
     37 C          27.8771   28.0783    1.8843 C.2       5 UNK         0.5055 
     38 O          27.3299   29.0665    1.3892 O.2       5 UNK        -0.5220 
     39 N          29.2067   27.9094    1.8794 N.am      6 UNK        -0.4450 
     40 CA         30.1469   28.8631    1.2840 C.3       6 UNK         0.0367 
     41 CB         31.4191   28.1274    0.8317 C.3       6 UNK        -0.1929 
     42 C          30.4422   30.0169    2.2561 C.2       6 UNK         0.5070 
     43 O          31.5614   30.1437    2.7550 O.2       6 UNK        -0.5237 
     44 N          29.4253   30.8498    2.5095 N.am      7 UNK        -0.4739 
     45 CA         29.4793   32.0086    3.4093 C.3       7 UNK         0.0276 
     46 CB         28.0747   32.6201    3.5298 C.3       7 UNK        -0.1927 
     47 C          30.5037   33.0814    2.9939 C.2       7 UNK         0.5013 
     48 O          31.0286   33.7781    3.8621 O.2       7 UNK        -0.5193 
     49 N          30.7913   33.1727    1.6870 N.am      8 UNK        -0.4253 
     50 CA         31.8382   34.0272    1.1205 C.3       8 UNK         0.0242 
     51 CB         31.6525   34.1203   -0.4027 C.3       8 UNK        -0.2000 
     52 C          33.2594   33.5423    1.4626 C.2       8 UNK         0.4948 
     53 O          34.1508   34.3742    1.6358 O.2       8 UNK        -0.5275 
     54 N          33.4451   32.2174    1.5597 N.am      9 UNK        -0.4246 
     55 CA         34.6927   31.5877    2.0005 C.3       9 UNK         0.0261 
     56 CB         34.7960   30.1746    1.4018 C.3       9 UNK        -0.1959 
     57 C          34.7874   31.5255    3.5340 C.2       9 UNK         0.5033 
     58 O          35.8954   31.5895    4.0678 O.2       9 UNK        -0.5390 
     59 N          33.6277   31.3979    4.1979 N.am      10 UNK        -0.4215 
     60 CA         33.4235   31.2472    5.6412 C.3       10 UNK         0.0240 
     61 CB         33.9043   32.4949    6.4129 C.3       10 UNK        -0.1982 
     62 C          34.0274   29.9293    6.1562 C.2       10 UNK         0.4970 
     63 O          34.7985   29.9299    7.1177 O.2       10 UNK        -0.4916 
     64 N          33.6700   28.8281    5.4820 N.am      11 UNK        -0.4279 
     65 CA         34.1379   27.4657    5.7803 C.3       11 UNK         0.1003 
     66 C          33.6506   26.8630    7.1321 C.2       11 UNK         0.5709 
     67 N          32.6449   27.4278    7.7904 N.am      11 UNK        -0.7358 
     68 O          34.2026   25.8665    7.5926 O.2       11 UNK        -0.4999 
     69 C69        33.8839   26.5073    4.5859 C.3       12 UNK        -0.0954 
     70 S70        32.1207   26.3211    4.1464 S.3       12 UNK        -0.2268 
     71 C71        31.7632   24.6935    4.8710 C.3       12 UNK         0.0203 
     72 H72        34.7594   22.5083    0.2396 H         1 UNK         0.0888 
     73 H73        35.1896   24.0718   -0.4579 H         1 UNK         0.0888 
     74 H74        35.1673   23.8627    1.2955 H         1 UNK         0.0888 
     75 H75        32.5578   22.1370    0.0996 H         1 UNK         0.3017 
     76 H76        30.6121   24.0105    1.0755 H         1 UNK         0.0873 
     77 H77        30.5353   21.4161    1.2134 H         1 UNK         0.0745 
     78 H78        30.0786   21.4059   -0.4583 H         1 UNK         0.0745 
     79 H79        27.2968   21.3601    2.8972 H         1 UNK         0.0705 
     80 H80        28.9708   20.8961    2.8128 H         1 UNK         0.0705 
     81 H81        30.7690   22.7263    3.2634 H         1 UNK         0.1334 
     82 H82        29.5525   25.7719    6.0214 H         1 UNK         0.1417 
     83 H83        26.6084   23.2706    4.1572 H         1 UNK         0.1562 
     84 H84        27.2743   26.0667    6.6159 H         1 UNK         0.0748 
     85 H85        26.3458   24.5892    6.5749 H         1 UNK         0.0748 
     86 H86        27.5342   27.5769    4.6017 H         1 UNK         0.0940 
     87 H87        26.0744   28.3108    4.0107 H         1 UNK         0.0940 
     88 H88        27.6643   26.0884    2.6295 H         1 UNK         0.0703 
     89 H89        26.0752   25.7371    1.1558 H         1 UNK         0.3081 
     90 H90        23.0384   26.1114    0.8640 H         1 UNK         0.0719 
     91 H91        22.6338   28.4174    0.0598 H         1 UNK         0.0809 
     92 H92        24.0070   28.3154   -1.0348 H         1 UNK         0.0809 
     93 H93        22.5849   27.3052   -1.2955 H         1 UNK         0.0809 
     94 H94        25.0924   26.0758   -1.2905 H         1 UNK         0.2990 
     95 H95        25.6178   22.5760   -0.9441 H         1 UNK         0.0690 
     96 H96        25.3365   22.7743   -3.4013 H         1 UNK         0.0788 
     97 H97        24.5494   24.3397   -3.2099 H         1 UNK         0.0788 
     98 H98        23.7912   22.8897   -2.5753 H         1 UNK         0.0788 
     99 H99        27.5632   23.5243   -1.1659 H         1 UNK         0.2993 
    100 H100       29.1280   25.2316   -3.0298 H         1 UNK         0.0949 
    101 H101       30.0731   27.3157   -1.9923 H         1 UNK         0.0767 
    102 H102       28.5751   27.6341   -2.8438 H         1 UNK         0.0767 
    103 H103       28.5738   27.5416   -1.0887 H         1 UNK         0.0767 
    104 H104       28.9954   25.0757   -0.0457 H         1 UNK         0.3013 
    105 H105       29.6154   27.1219    2.3635 H         1 UNK         0.3121 
    106 H106       29.6980   29.2991    0.3888 H         1 UNK         0.0774 
    107 H107       31.9844   27.7254    1.6708 H         1 UNK         0.0815 
    108 H108       31.1859   27.2985    0.1645 H         1 UNK         0.0815 
    109 H109       32.0838   28.7999    0.2889 H         1 UNK         0.0815 
    110 H110       28.5297   30.6346    2.0825 H         1 UNK         0.2987 
    111 H111       29.7799   31.6441    4.3940 H         1 UNK         0.0949 
    112 H112       27.3577   31.8947    3.9151 H         1 UNK         0.0806 
    113 H113       28.0752   33.4686    4.2156 H         1 UNK         0.0806 
    114 H114       27.7061   32.9781    2.5676 H         1 UNK         0.0806 
    115 H115       30.2876   32.5750    1.0481 H         1 UNK         0.3010 
    116 H116       31.7217   35.0287    1.5408 H         1 UNK         0.0829 
    117 H117       31.7409   33.1451   -0.8833 H         1 UNK         0.0813 
    118 H118       32.4063   34.7717   -0.8474 H         1 UNK         0.0813 
    119 H119       30.6774   34.5350   -0.6593 H         1 UNK         0.0813 
    120 H120       32.6501   31.6046    1.4400 H         1 UNK         0.3038 
    121 H121       35.5383   32.1737    1.6337 H         1 UNK         0.0769 
    122 H122       34.7344   30.1971    0.3138 H         1 UNK         0.0811 
    123 H123       34.0086   29.5166    1.7706 H         1 UNK         0.0811 
    124 H124       35.7492   29.7129    1.6627 H         1 UNK         0.0811 
    125 H125       32.7982   31.2345    3.6320 H         1 UNK         0.3204 
    126 H126       32.3451   31.1695    5.7884 H         1 UNK         0.0748 
    127 H127       34.9857   32.6211    6.3549 H         1 UNK         0.0771 
    128 H128       33.4392   33.4010    6.0242 H         1 UNK         0.0771 
    129 H129       33.6429   32.4232    7.4693 H         1 UNK         0.0771 
    130 H130       33.0252   28.9113    4.7083 H         1 UNK         0.2980 
    131 H131       35.2221   27.5402    5.8851 H         1 UNK         0.0545 
    132 H132       32.1843   28.2418    7.4185 H         1 UNK         0.3459 
    133 H133       32.3444   27.0316    8.6666 H         1 UNK         0.3459 
    134 H134       34.3238   25.5269    4.7775 H         1 UNK         0.0616 
    135 H135       34.4000   26.8863    3.7024 H         1 UNK         0.0616 
    136 H136       32.4336   23.9527    4.4323 H         1 UNK         0.0634 
    137 H137       31.9748   24.7122    5.9406 H         1 UNK         0.0634 
@<TRIPOS>BOND
     1    1    2 1    
     2    1   72 1    
     3    1   73 1    
     4    1   74 1    
     5    2    3 2    
     6    2    4 am   BACKBONE|DICT|INTERRES
     7    4    5 1    
     8    4   75 1    
     9    5    6 1    
    10    5   35 1    
    11    5   76 1    
    12    6    7 1    
    13    6   77 1    
    14    6   78 1    
    15    7    8 1    
    16    8    9 1    
    17    8   79 1    
    18    8   80 1    
    19    9   10 ar   
    20    9   14 ar   
    21   10   11 ar   
    22   10   81 1    
    23   11   12 ar   
    24   11   71 1    
    25   12   13 ar   
    26   12   82 1    
    27   13   14 ar   
    28   13   15 1    
    29   14   83 1    
    30   15   16 1    
    31   15   84 1    
    32   15   85 1    
    33   16   17 1    
    34   17   18 1    
    35   17   86 1    
    36   17   87 1    
    37   18   19 1    
    38   18   37 1    
    39   18   88 1    
    40   19   20 am   BACKBONE|DICT|INTERRES
    41   19   89 1    
    42   20   21 2    
    43   20   22 1    
    44   22   23 1    
    45   22   24 1    
    46   22   90 1    
    47   23   91 1    
    48   23   92 1    
    49   23   93 1    
    50   24   25 am   BACKBONE|DICT|INTERRES
    51   24   94 1    
    52   25   26 2    
    53   25   27 1    
    54   27   28 1    
    55   27   29 1    
    56   27   95 1    
    57   28   96 1    
    58   28   97 1    
    59   28   98 1    
    60   29   30 am   BACKBONE|DICT|INTERRES
    61   29   99 1    
    62   30   31 2    
    63   30   32 1    
    64   32   33 1    
    65   32   34 1    
    66   32  100 1    
    67   33  101 1    
    68   33  102 1    
    69   33  103 1    
    70   34   35 am   BACKBONE|DICT|INTERRES
    71   34  104 1    
    72   35   36 2    
    73   37   38 2    
    74   37   39 am   BACKBONE|DICT|INTERRES
    75   39   40 1    
    76   39  105 1    
    77   40   41 1    
    78   40   42 1    
    79   40  106 1    
    80   41  107 1    
    81   41  108 1    
    82   41  109 1    
    83   42   43 2    
    84   42   44 am   BACKBONE|DICT|INTERRES
    85   44   45 1    
    86   44  110 1    
    87   45   46 1    
    88   45   47 1    
    89   45  111 1    
    90   46  112 1    
    91   46  113 1    
    92   46  114 1    
    93   47   48 2    
    94   47   49 am   BACKBONE|DICT|INTERRES
    95   49   50 1    
    96   49  115 1    
    97   50   51 1    
    98   50   52 1    
    99   50  116 1    
   100   51  117 1    
   101   51  118 1    
   102   51  119 1    
   103   52   53 2    
   104   52   54 am   BACKBONE|DICT|INTERRES
   105   54   55 1    
   106   54  120 1    
   107   55   56 1    
   108   55   57 1    
   109   55  121 1    
   110   56  122 1    
   111   56  123 1    
   112   56  124 1    
   113   57   58 2    
   114   57   59 am   BACKBONE|DICT|INTERRES
   115   59   60 1    
   116   59  125 1    
   117   60   61 1    
   118   60   62 1    
   119   60  126 1    
   120   61  127 1    
   121   61  128 1    
   122   61  129 1    
   123   62   63 2    
   124   62   64 am   BACKBONE|DICT|INTERRES
   125   64   65 1    
   126   64  130 1    
   127   65   66 1    
   128   65   69 1    
   129   65  131 1    
   130   66   67 am   BACKBONE|DICT|INTERRES
   131   66   68 2    
   132   67  132 1    
   133   67  133 1    
   134   69   70 1    
   135   69  134 1    
   136   69  135 1    
   137   70   71 1    
   138   71  136 1    
   139   71  137 1    
@<TRIPOS>SUBSTRUCTURE
     1 UNK         1 GROUP             0       ****    0 ROOT    
