@<TRIPOS>MOLECULE
3R136
137   139    1
SMALL
USER_CHARGES


@<TRIPOS>ATOM
      1 CA         29.2568   19.0875   -0.9271 C.3       0 UNK        -0.1979 
      2 C          29.7328   20.5168   -0.7177 C.2       0 UNK         0.4864 
      3 O          28.9073   21.4227   -0.5959 O.2       0 UNK        -0.5359 
      4 N          31.0567   20.7276   -0.6921 N.am      1 UNK        -0.4318 
      5 CA         31.7822   21.9876   -0.4429 C.3       1 UNK         0.0824 
      6 C6         31.4954   22.6164    0.9487 C.3       12 UNK        -0.0944 
      7 S7         31.9734   21.5092    2.3169 S.3       12 UNK        -0.2672 
      8 C8         30.3548   21.1159    3.0684 C.3       12 UNK         0.0333 
      9 C9         29.6876   22.2653    3.8278 C.ar      12 UNK        -0.0807 
     10 C10        30.4277   23.2917    4.4313 C.ar      12 UNK        -0.0894 
     11 C11        29.7852   24.3052    5.1476 C.ar      12 UNK        -0.0804 
     12 C12        28.3974   24.2773    5.2908 C.ar      12 UNK        -0.0824 
     13 C13        27.6428   23.2751    4.6803 C.ar      12 UNK        -0.0762 
     14 C14        28.2930   22.2717    3.9536 C.ar      12 UNK        -0.0782 
     15 C15        26.1267   23.2809    4.8056 C.3       12 UNK         0.0230 
     16 S16        25.3481   24.2638    3.4842 S.3       12 UNK        -0.2608 
     17 C17        25.5484   25.9843    4.0789 C.3       12 UNK        -0.0989 
     18 CA         26.7055   26.7597    3.3840 C.3       5 UNK         0.0716 
     19 N          26.6683   26.6754    1.9220 N.am      5 UNK        -0.4135 
     20 C          25.7617   27.2014    1.0854 C.2       4 UNK         0.5031 
     21 O          24.7299   27.7655    1.4533 O.2       4 UNK        -0.5229 
     22 CA         26.0900   27.1030   -0.4224 C.3       4 UNK         0.0329 
     23 CB         25.5948   28.3373   -1.2059 C.3       4 UNK        -0.2001 
     24 N          27.5153   26.8506   -0.7021 N.am      4 UNK        -0.4303 
     25 C          28.5618   27.6114   -0.3361 C.2       3 UNK         0.5044 
     26 O          28.4459   28.6790    0.2648 O.2       3 UNK        -0.5152 
     27 CA         29.9730   27.0487   -0.5807 C.3       3 UNK         0.0319 
     28 CB         30.6936   26.8327    0.7629 C.3       3 UNK        -0.2001 
     29 N          29.9644   25.7708   -1.2953 N.am      3 UNK        -0.4354 
     30 C          30.0158   25.6155   -2.6252 C.2       2 UNK         0.4964 
     31 O          30.0378   26.5567   -3.4193 O.2       2 UNK        -0.5047 
     32 CA         30.0180   24.1632   -3.1513 C.3       2 UNK         0.0288 
     33 CB         30.8200   24.0055   -4.4611 C.3       2 UNK        -0.2113 
     34 N          30.4382   23.1736   -2.1460 N.am      2 UNK        -0.4145 
     35 C          31.6375   23.0489   -1.5572 C.2       1 UNK         0.5006 
     36 O          32.6133   23.7450   -1.8410 O.2       1 UNK        -0.5103 
     37 C          26.8439   28.2164    3.8995 C.2       5 UNK         0.5055 
     38 O          26.4705   28.4878    5.0428 O.2       5 UNK        -0.5220 
     39 N          27.3530   29.1357    3.0631 N.am      6 UNK        -0.4450 
     40 CA         27.4370   30.5634    3.3610 C.3       6 UNK         0.0367 
     41 CB         27.2773   31.3593    2.0546 C.3       6 UNK        -0.1929 
     42 C          28.7730   30.9083    4.0276 C.2       6 UNK         0.5070 
     43 O          29.8300   30.5755    3.4892 O.2       6 UNK        -0.5237 
     44 N          28.7096   31.6526    5.1398 N.am      7 UNK        -0.4739 
     45 CA         29.8729   32.1882    5.8623 C.3       7 UNK         0.0276 
     46 CB         29.4102   32.7482    7.2168 C.3       7 UNK        -0.1927 
     47 C          30.6616   33.2538    5.0754 C.2       7 UNK         0.5013 
     48 O          31.8146   33.5225    5.4106 O.2       7 UNK        -0.5193 
     49 N          30.0341   33.8313    4.0415 N.am      8 UNK        -0.4253 
     50 CA         30.6665   34.7167    3.0625 C.3       8 UNK         0.0242 
     51 CB         29.5727   35.5324    2.3526 C.3       8 UNK        -0.2000 
     52 C          31.5291   33.9616    2.0306 C.2       8 UNK         0.4948 
     53 O          32.3293   34.6034    1.3478 O.2       8 UNK        -0.5275 
     54 N          31.3461   32.6382    1.9165 N.am      9 UNK        -0.4246 
     55 CA         32.1086   31.7488    1.0432 C.3       9 UNK         0.0261 
     56 CB         31.1229   30.8238    0.3003 C.3       9 UNK        -0.1959 
     57 C          33.1594   30.9868    1.8733 C.2       9 UNK         0.5033 
     58 O          33.6487   31.5099    2.8781 O.2       9 UNK        -0.5390 
     59 N          33.5037   29.7641    1.4430 N.am      10 UNK        -0.4215 
     60 CA         34.5460   28.9122    2.0311 C.3       10 UNK         0.0240 
     61 CB         34.7237   27.6548    1.1642 C.3       10 UNK        -0.1982 
     62 C          34.3296   28.5222    3.5068 C.2       10 UNK         0.4970 
     63 O          35.2999   28.1430    4.1646 O.2       10 UNK        -0.4916 
     64 N          33.0913   28.6287    4.0067 N.am      11 UNK        -0.4279 
     65 CA         32.7571   28.4501    5.4279 C.3       11 UNK         0.1003 
     66 C          33.2420   29.6134    6.3431 C.2       11 UNK         0.5709 
     67 N          33.6441   30.7624    5.8111 N.am      11 UNK        -0.7358 
     68 O          33.2547   29.4663    7.5628 O.2       11 UNK        -0.4999 
     69 C69        31.2460   28.1838    5.6505 C.3       12 UNK        -0.0954 
     70 S70        30.5692   26.8641    4.5940 S.3       12 UNK        -0.2268 
     71 C71        30.5762   25.4560    5.7414 C.3       12 UNK         0.0203 
     72 H72        30.0884   18.3895   -1.0216 H         1 UNK         0.0888 
     73 H73        28.6431   18.7712   -0.0841 H         1 UNK         0.0888 
     74 H74        28.6534   19.0218   -1.8320 H         1 UNK         0.0888 
     75 H75        31.6624   19.9309   -0.8335 H         1 UNK         0.3017 
     76 H76        32.8369   21.7065   -0.4545 H         1 UNK         0.0873 
     77 H77        32.0635   23.5403    1.0761 H         1 UNK         0.0745 
     78 H78        30.4452   22.8968    1.0460 H         1 UNK         0.0745 
     79 H79        30.4958   20.2882    3.7644 H         1 UNK         0.0705 
     80 H80        29.6904   20.7479    2.2855 H         1 UNK         0.0705 
     81 H81        31.5046   23.3140    4.3422 H         1 UNK         0.1334 
     82 H82        27.9023   25.0593    5.8500 H         1 UNK         0.1417 
     83 H83        27.7086   21.4896    3.4876 H         1 UNK         0.1562 
     84 H84        25.8217   23.6568    5.7834 H         1 UNK         0.0748 
     85 H85        25.7491   22.2590    4.7467 H         1 UNK         0.0748 
     86 H86        25.6894   25.9729    5.1608 H         1 UNK         0.0940 
     87 H87        24.6020   26.5019    3.9125 H         1 UNK         0.0940 
     88 H88        27.6411   26.2784    3.6633 H         1 UNK         0.0703 
     89 H89        27.4617   26.2154    1.5031 H         1 UNK         0.3081 
     90 H90        25.5456   26.2332   -0.7928 H         1 UNK         0.0719 
     91 H91        25.8286   28.2540   -2.2671 H         1 UNK         0.0809 
     92 H92        26.0438   29.2591   -0.8344 H         1 UNK         0.0809 
     93 H93        24.5129   28.4475   -1.1220 H         1 UNK         0.0809 
     94 H94        27.7184   25.9839   -1.1793 H         1 UNK         0.2990 
     95 H95        30.5293   27.7892   -1.1592 H         1 UNK         0.0690 
     96 H96        31.6920   26.4256    0.6108 H         1 UNK         0.0788 
     97 H97        30.1517   26.1413    1.4098 H         1 UNK         0.0788 
     98 H98        30.8034   27.7677    1.3132 H         1 UNK         0.0788 
     99 H99        29.9431   24.9376   -0.7263 H         1 UNK         0.2993 
    100 H100       28.9763   23.9317   -3.3787 H         1 UNK         0.0949 
    101 H101       31.8619   24.3025   -4.3385 H         1 UNK         0.0767 
    102 H102       30.8036   22.9745   -4.8144 H         1 UNK         0.0767 
    103 H103       30.3992   24.6245   -5.2546 H         1 UNK         0.0767 
    104 H104       29.7048   22.5642   -1.7851 H         1 UNK         0.3013 
    105 H105       27.7017   28.8523    2.1521 H         1 UNK         0.3121 
    106 H106       26.6164   30.8432    4.0255 H         1 UNK         0.0774 
    107 H107       27.2782   32.4330    2.2454 H         1 UNK         0.0815 
    108 H108       28.0864   31.1523    1.3526 H         1 UNK         0.0815 
    109 H109       26.3374   31.1186    1.5572 H         1 UNK         0.0815 
    110 H110       27.8012   31.8869    5.5158 H         1 UNK         0.2987 
    111 H111       30.5626   31.3639    6.0524 H         1 UNK         0.0949 
    112 H112       28.9282   31.9793    7.8209 H         1 UNK         0.0806 
    113 H113       30.2568   33.1250    7.7927 H         1 UNK         0.0806 
    114 H114       28.7066   33.5727    7.0948 H         1 UNK         0.0806 
    115 H115       29.0760   33.5678    3.8663 H         1 UNK         0.3010 
    116 H116       31.3231   35.4099    3.5930 H         1 UNK         0.0829 
    117 H117       28.9901   36.1193    3.0630 H         1 UNK         0.0813 
    118 H118       30.0096   36.2326    1.6391 H         1 UNK         0.0813 
    119 H119       28.8847   34.8916    1.7995 H         1 UNK         0.0813 
    120 H120       30.7267   32.1681    2.5680 H         1 UNK         0.3038 
    121 H121       32.6528   32.3299    0.2962 H         1 UNK         0.0769 
    122 H122       30.3487   31.4011   -0.2056 H         1 UNK         0.0811 
    123 H123       30.6204   30.1383    0.9827 H         1 UNK         0.0811 
    124 H124       31.6202   30.2307   -0.4673 H         1 UNK         0.0811 
    125 H125       33.0505   29.4092    0.6141 H         1 UNK         0.3204 
    126 H126       35.4773   29.4812    1.9925 H         1 UNK         0.0748 
    127 H127       35.5549   27.0476    1.5256 H         1 UNK         0.0771 
    128 H128       33.8352   27.0249    1.1807 H         1 UNK         0.0771 
    129 H129       34.9406   27.9095    0.1266 H         1 UNK         0.0771 
    130 H130       32.3430   28.9549    3.4136 H         1 UNK         0.2980 
    131 H131       33.2878   27.5599    5.7708 H         1 UNK         0.0545 
    132 H132       33.9414   31.5088    6.4182 H         1 UNK         0.3459 
    133 H133       33.6240   30.9140    4.8077 H         1 UNK         0.3459 
    134 H134       31.0512   27.9407    6.6964 H         1 UNK         0.0616 
    135 H135       30.6705   29.0849    5.4470 H         1 UNK         0.0616 
    136 H136       30.1369   25.7508    6.6956 H         1 UNK         0.0634 
    137 H137       31.6055   25.1573    5.9458 H         1 UNK         0.0634 
@<TRIPOS>BOND
     1    1    2 1    
     2    1   72 1    
     3    1   73 1    
     4    1   74 1    
     5    2    3 2    
     6    2    4 am   BACKBONE|DICT|INTERRES
     7    4    5 1    
     8    4   75 1    
     9    5    6 1    
    10    5   35 1    
    11    5   76 1    
    12    6    7 1    
    13    6   77 1    
    14    6   78 1    
    15    7    8 1    
    16    8    9 1    
    17    8   79 1    
    18    8   80 1    
    19    9   10 ar   
    20    9   14 ar   
    21   10   11 ar   
    22   10   81 1    
    23   11   12 ar   
    24   11   71 1    
    25   12   13 ar   
    26   12   82 1    
    27   13   14 ar   
    28   13   15 1    
    29   14   83 1    
    30   15   16 1    
    31   15   84 1    
    32   15   85 1    
    33   16   17 1    
    34   17   18 1    
    35   17   86 1    
    36   17   87 1    
    37   18   19 1    
    38   18   37 1    
    39   18   88 1    
    40   19   20 am   BACKBONE|DICT|INTERRES
    41   19   89 1    
    42   20   21 2    
    43   20   22 1    
    44   22   23 1    
    45   22   24 1    
    46   22   90 1    
    47   23   91 1    
    48   23   92 1    
    49   23   93 1    
    50   24   25 am   BACKBONE|DICT|INTERRES
    51   24   94 1    
    52   25   26 2    
    53   25   27 1    
    54   27   28 1    
    55   27   29 1    
    56   27   95 1    
    57   28   96 1    
    58   28   97 1    
    59   28   98 1    
    60   29   30 am   BACKBONE|DICT|INTERRES
    61   29   99 1    
    62   30   31 2    
    63   30   32 1    
    64   32   33 1    
    65   32   34 1    
    66   32  100 1    
    67   33  101 1    
    68   33  102 1    
    69   33  103 1    
    70   34   35 am   BACKBONE|DICT|INTERRES
    71   34  104 1    
    72   35   36 2    
    73   37   38 2    
    74   37   39 am   BACKBONE|DICT|INTERRES
    75   39   40 1    
    76   39  105 1    
    77   40   41 1    
    78   40   42 1    
    79   40  106 1    
    80   41  107 1    
    81   41  108 1    
    82   41  109 1    
    83   42   43 2    
    84   42   44 am   BACKBONE|DICT|INTERRES
    85   44   45 1    
    86   44  110 1    
    87   45   46 1    
    88   45   47 1    
    89   45  111 1    
    90   46  112 1    
    91   46  113 1    
    92   46  114 1    
    93   47   48 2    
    94   47   49 am   BACKBONE|DICT|INTERRES
    95   49   50 1    
    96   49  115 1    
    97   50   51 1    
    98   50   52 1    
    99   50  116 1    
   100   51  117 1    
   101   51  118 1    
   102   51  119 1    
   103   52   53 2    
   104   52   54 am   BACKBONE|DICT|INTERRES
   105   54   55 1    
   106   54  120 1    
   107   55   56 1    
   108   55   57 1    
   109   55  121 1    
   110   56  122 1    
   111   56  123 1    
   112   56  124 1    
   113   57   58 2    
   114   57   59 am   BACKBONE|DICT|INTERRES
   115   59   60 1    
   116   59  125 1    
   117   60   61 1    
   118   60   62 1    
   119   60  126 1    
   120   61  127 1    
   121   61  128 1    
   122   61  129 1    
   123   62   63 2    
   124   62   64 am   BACKBONE|DICT|INTERRES
   125   64   65 1    
   126   64  130 1    
   127   65   66 1    
   128   65   69 1    
   129   65  131 1    
   130   66   67 am   BACKBONE|DICT|INTERRES
   131   66   68 2    
   132   67  132 1    
   133   67  133 1    
   134   69   70 1    
   135   69  134 1    
   136   69  135 1    
   137   70   71 1    
   138   71  136 1    
   139   71  137 1    
@<TRIPOS>SUBSTRUCTURE
     1 UNK         1 GROUP             0       ****    0 ROOT    
