@<TRIPOS>MOLECULE
3R136
137   139    1
SMALL
USER_CHARGES


@<TRIPOS>ATOM
      1 CA         25.7455   23.8959    6.0553 C.3       0 UNK        -0.1979 
      2 C          26.1520   23.0011    4.8933 C.2       0 UNK         0.4864 
      3 O          25.5622   21.9351    4.7073 O.2       0 UNK        -0.5359 
      4 N          27.1598   23.4232    4.1182 N.am      1 UNK        -0.4318 
      5 CA         27.6355   22.7308    2.9157 C.3       1 UNK         0.0824 
      6 C6         29.0833   23.1548    2.5585 C.3       12 UNK        -0.0944 
      7 S7         29.9980   21.8434    1.6854 S.3       12 UNK        -0.2672 
      8 C8         31.7289   22.3010    2.0461 C.3       12 UNK         0.0333 
      9 C9         32.2084   23.5374    1.2887 C.ar      12 UNK        -0.0807 
     10 C10        32.9682   24.5126    1.9457 C.ar      12 UNK        -0.0894 
     11 C11        33.4676   25.6246    1.2507 C.ar      12 UNK        -0.0804 
     12 C12        33.1763   25.7559   -0.1105 C.ar      12 UNK        -0.0824 
     13 C13        32.4162   24.7942   -0.7795 C.ar      12 UNK        -0.0762 
     14 C14        31.9456   23.6825   -0.0772 C.ar      12 UNK        -0.0782 
     15 C15        32.1178   24.9458   -2.2653 C.3       12 UNK         0.0230 
     16 S16        31.0365   26.3685   -2.6239 S.3       12 UNK        -0.2608 
     17 C17        29.5293   25.9486   -1.6838 C.3       12 UNK        -0.0989 
     18 CA         28.9671   27.1291   -0.8537 C.3       5 UNK         0.0716 
     19 N          27.5897   26.8483   -0.4324 N.am      5 UNK        -0.4135 
     20 C          26.7355   27.7493    0.0802 C.2       4 UNK         0.5031 
     21 O          27.0312   28.9279    0.2829 O.2       4 UNK        -0.5229 
     22 CA         25.3159   27.2468    0.4241 C.3       4 UNK         0.0329 
     23 CB         24.2764   28.3851    0.5075 C.3       4 UNK        -0.2001 
     24 N          24.8550   26.1763   -0.4681 N.am      4 UNK        -0.4303 
     25 C          24.7141   26.2344   -1.8033 C.2       3 UNK         0.5044 
     26 O          24.8285   27.2721   -2.4574 O.2       3 UNK        -0.5152 
     27 CA         24.4213   24.9075   -2.5402 C.3       3 UNK         0.0319 
     28 CB         25.1102   24.8521   -3.9208 C.3       3 UNK        -0.2001 
     29 N          24.7355   23.6928   -1.7705 N.am      3 UNK        -0.4354 
     30 C          25.9224   23.3419   -1.2522 C.2       2 UNK         0.4964 
     31 O          26.9479   24.0217   -1.3400 O.2       2 UNK        -0.5047 
     32 CA         25.9518   22.0105   -0.4835 C.3       2 UNK         0.0288 
     33 CB         26.4621   20.8828   -1.3949 C.3       2 UNK        -0.2113 
     34 N          26.7790   22.0570    0.7253 N.am      2 UNK        -0.4145 
     35 C          26.6612   22.9330    1.7333 C.2       1 UNK         0.5006 
     36 O          25.8451   23.8613    1.7500 O.2       1 UNK        -0.5103 
     37 C          29.8819   27.5344    0.3270 C.2       5 UNK         0.5055 
     38 O          30.7911   28.3473    0.1441 O.2       5 UNK        -0.5220 
     39 N          29.5931   27.0193    1.5313 N.am      6 UNK        -0.4450 
     40 CA         30.2324   27.4216    2.7844 C.3       6 UNK         0.0367 
     41 CB         30.0755   26.3030    3.8284 C.3       6 UNK        -0.1929 
     42 C          29.6758   28.7671    3.2819 C.2       6 UNK         0.5070 
     43 O          28.9161   28.8043    4.2515 O.2       6 UNK        -0.5237 
     44 N          30.0505   29.8478    2.5888 N.am      7 UNK        -0.4739 
     45 CA         29.7530   31.2306    2.9643 C.3       7 UNK         0.0276 
     46 CB         30.1571   32.1550    1.8048 C.3       7 UNK        -0.1927 
     47 C          30.4989   31.6328    4.2464 C.2       7 UNK         0.5013 
     48 O          31.5954   31.1251    4.4952 O.2       7 UNK        -0.5193 
     49 N          29.9293   32.5754    5.0096 N.am      8 UNK        -0.4253 
     50 CA         30.4770   33.0728    6.2808 C.3       8 UNK         0.0242 
     51 CB         29.4754   34.0508    6.9164 C.3       8 UNK        -0.2000 
     52 C          31.8689   33.7259    6.1698 C.2       8 UNK         0.4948 
     53 O          32.6222   33.7099    7.1433 O.2       8 UNK        -0.5275 
     54 N          32.1927   34.2636    4.9861 N.am      9 UNK        -0.4246 
     55 CA         33.5116   34.7987    4.6394 C.3       9 UNK         0.0261 
     56 CB         33.3500   35.7826    3.4677 C.3       9 UNK        -0.1959 
     57 C          34.5459   33.7087    4.2878 C.2       9 UNK         0.5033 
     58 O          35.7280   34.0349    4.1647 O.2       9 UNK        -0.5390 
     59 N          34.0989   32.4591    4.1067 N.am      10 UNK        -0.4215 
     60 CA         34.9093   31.3020    3.7440 C.3       10 UNK         0.0240 
     61 CB         34.4683   30.8020    2.3502 C.3       10 UNK        -0.1982 
     62 C          34.7851   30.2542    4.8624 C.2       10 UNK         0.4970 
     63 O          35.2542   30.5069    5.9731 O.2       10 UNK        -0.4916 
     64 N          34.1823   29.1004    4.5536 N.am      11 UNK        -0.4279 
     65 CA         34.0212   27.9552    5.4631 C.3       11 UNK         0.1003 
     66 C          32.9378   28.1405    6.5648 C.2       11 UNK         0.5709 
     67 N          32.0667   29.1388    6.4937 N.am      11 UNK        -0.7358 
     68 O          32.8921   27.3587    7.5115 O.2       11 UNK        -0.4999 
     69 C69        33.7943   26.6320    4.6838 C.3       12 UNK        -0.0954 
     70 S70        35.1216   26.2685    3.4863 S.3       12 UNK        -0.2268 
     71 C71        34.3209   26.7142    1.9055 C.3       12 UNK         0.0203 
     72 H72        26.3594   24.7946    6.1131 H         1 UNK         0.0888 
     73 H73        24.7056   24.2025    5.9455 H         1 UNK         0.0888 
     74 H74        25.8449   23.3567    6.9970 H         1 UNK         0.0888 
     75 H75        27.5784   24.3213    4.3057 H         1 UNK         0.3017 
     76 H76        27.6405   21.6640    3.1525 H         1 UNK         0.0873 
     77 H77        29.1109   24.0734    1.9694 H         1 UNK         0.0745 
     78 H78        29.6348   23.3585    3.4769 H         1 UNK         0.0745 
     79 H79        31.8456   22.4327    3.1229 H         1 UNK         0.0705 
     80 H80        32.3705   21.4632    1.7704 H         1 UNK         0.0705 
     81 H81        33.1794   24.3881    2.9976 H         1 UNK         0.1334 
     82 H82        33.5399   26.6154   -0.6577 H         1 UNK         0.1417 
     83 H83        31.3721   22.9256   -0.5948 H         1 UNK         0.1562 
     84 H84        31.6551   24.0419   -2.6648 H         1 UNK         0.0748 
     85 H85        33.0566   25.0722   -2.8062 H         1 UNK         0.0748 
     86 H86        29.6907   25.0767   -1.0486 H         1 UNK         0.0940 
     87 H87        28.7891   25.6358   -2.4222 H         1 UNK         0.0940 
     88 H88        28.9118   27.9977   -1.5136 H         1 UNK         0.0703 
     89 H89        27.2577   25.9037   -0.6039 H         1 UNK         0.3081 
     90 H90        25.3914   26.7985    1.4160 H         1 UNK         0.0719 
     91 H91        23.2879   28.0022    0.7609 H         1 UNK         0.0809 
     92 H92        24.1949   28.9300   -0.4334 H         1 UNK         0.0809 
     93 H93        24.5492   29.1080    1.2774 H         1 UNK         0.0809 
     94 H94        24.7545   25.2696   -0.0297 H         1 UNK         0.2990 
     95 H95        23.3433   24.8914   -2.7072 H         1 UNK         0.0690 
     96 H96        24.7746   25.6676   -4.5626 H         1 UNK         0.0788 
     97 H97        24.8835   23.9213   -4.4406 H         1 UNK         0.0788 
     98 H98        26.1945   24.9322   -3.8341 H         1 UNK         0.0788 
     99 H99        23.9534   23.0685   -1.6241 H         1 UNK         0.2993 
    100 H100       24.9357   21.7689   -0.1647 H         1 UNK         0.0949 
    101 H101       27.4917   21.0578   -1.7110 H         1 UNK         0.0767 
    102 H102       26.4241   19.9160   -0.8925 H         1 UNK         0.0767 
    103 H103       25.8538   20.8014   -2.2969 H         1 UNK         0.0767 
    104 H104       27.5235   21.3762    0.7802 H         1 UNK         0.3013 
    105 H105       28.7950   26.4077    1.6044 H         1 UNK         0.3121 
    106 H106       31.3003   27.5587    2.6062 H         1 UNK         0.0774 
    107 H107       30.6417   25.4202    3.5368 H         1 UNK         0.0815 
    108 H108       30.4573   26.6177    4.8009 H         1 UNK         0.0815 
    109 H109       29.0326   26.0196    3.9674 H         1 UNK         0.0815 
    110 H110       30.6224   29.7030    1.7644 H         1 UNK         0.2987 
    111 H111       28.6776   31.3153    3.1359 H         1 UNK         0.0949 
    112 H112       31.2286   32.1071    1.6043 H         1 UNK         0.0806 
    113 H113       29.6330   31.8890    0.8863 H         1 UNK         0.0806 
    114 H114       29.9119   33.1948    2.0251 H         1 UNK         0.0806 
    115 H115       29.0366   32.9546    4.7269 H         1 UNK         0.3010 
    116 H116       30.5827   32.2128    6.9458 H         1 UNK         0.0829 
    117 H117       29.8427   34.4171    7.8763 H         1 UNK         0.0813 
    118 H118       29.3010   34.9205    6.2815 H         1 UNK         0.0813 
    119 H119       28.5144   33.5711    7.1030 H         1 UNK         0.0813 
    120 H120       31.5015   34.2465    4.2505 H         1 UNK         0.3038 
    121 H121       33.9014   35.3512    5.4971 H         1 UNK         0.0769 
    122 H122       34.3057   36.2382    3.2048 H         1 UNK         0.0811 
    123 H123       32.6670   36.5937    3.7209 H         1 UNK         0.0811 
    124 H124       32.9691   35.2874    2.5735 H         1 UNK         0.0811 
    125 H125       33.1236   32.2481    4.3013 H         1 UNK         0.3204 
    126 H126       35.9656   31.5724    3.6875 H         1 UNK         0.0748 
    127 H127       35.0486   29.9326    2.0379 H         1 UNK         0.0771 
    128 H128       33.4109   30.5344    2.3218 H         1 UNK         0.0771 
    129 H129       34.6266   31.5734    1.5963 H         1 UNK         0.0771 
    130 H130       33.8005   28.9921    3.6283 H         1 UNK         0.2980 
    131 H131       34.9642   27.8469    6.0026 H         1 UNK         0.0545 
    132 H132       32.0728   29.7948    5.7180 H         1 UNK         0.3459 
    133 H133       31.3774   29.2336    7.2208 H         1 UNK         0.3459 
    134 H134       33.7447   25.7880    5.3742 H         1 UNK         0.0616 
    135 H135       32.8373   26.6526    4.1657 H         1 UNK         0.0616 
    136 H136       35.1186   26.9930    1.2153 H         1 UNK         0.0634 
    137 H137       33.7121   27.6083    2.0389 H         1 UNK         0.0634 
@<TRIPOS>BOND
     1    1    2 1    
     2    1   72 1    
     3    1   73 1    
     4    1   74 1    
     5    2    3 2    
     6    2    4 am   BACKBONE|DICT|INTERRES
     7    4    5 1    
     8    4   75 1    
     9    5    6 1    
    10    5   35 1    
    11    5   76 1    
    12    6    7 1    
    13    6   77 1    
    14    6   78 1    
    15    7    8 1    
    16    8    9 1    
    17    8   79 1    
    18    8   80 1    
    19    9   10 ar   
    20    9   14 ar   
    21   10   11 ar   
    22   10   81 1    
    23   11   12 ar   
    24   11   71 1    
    25   12   13 ar   
    26   12   82 1    
    27   13   14 ar   
    28   13   15 1    
    29   14   83 1    
    30   15   16 1    
    31   15   84 1    
    32   15   85 1    
    33   16   17 1    
    34   17   18 1    
    35   17   86 1    
    36   17   87 1    
    37   18   19 1    
    38   18   37 1    
    39   18   88 1    
    40   19   20 am   BACKBONE|DICT|INTERRES
    41   19   89 1    
    42   20   21 2    
    43   20   22 1    
    44   22   23 1    
    45   22   24 1    
    46   22   90 1    
    47   23   91 1    
    48   23   92 1    
    49   23   93 1    
    50   24   25 am   BACKBONE|DICT|INTERRES
    51   24   94 1    
    52   25   26 2    
    53   25   27 1    
    54   27   28 1    
    55   27   29 1    
    56   27   95 1    
    57   28   96 1    
    58   28   97 1    
    59   28   98 1    
    60   29   30 am   BACKBONE|DICT|INTERRES
    61   29   99 1    
    62   30   31 2    
    63   30   32 1    
    64   32   33 1    
    65   32   34 1    
    66   32  100 1    
    67   33  101 1    
    68   33  102 1    
    69   33  103 1    
    70   34   35 am   BACKBONE|DICT|INTERRES
    71   34  104 1    
    72   35   36 2    
    73   37   38 2    
    74   37   39 am   BACKBONE|DICT|INTERRES
    75   39   40 1    
    76   39  105 1    
    77   40   41 1    
    78   40   42 1    
    79   40  106 1    
    80   41  107 1    
    81   41  108 1    
    82   41  109 1    
    83   42   43 2    
    84   42   44 am   BACKBONE|DICT|INTERRES
    85   44   45 1    
    86   44  110 1    
    87   45   46 1    
    88   45   47 1    
    89   45  111 1    
    90   46  112 1    
    91   46  113 1    
    92   46  114 1    
    93   47   48 2    
    94   47   49 am   BACKBONE|DICT|INTERRES
    95   49   50 1    
    96   49  115 1    
    97   50   51 1    
    98   50   52 1    
    99   50  116 1    
   100   51  117 1    
   101   51  118 1    
   102   51  119 1    
   103   52   53 2    
   104   52   54 am   BACKBONE|DICT|INTERRES
   105   54   55 1    
   106   54  120 1    
   107   55   56 1    
   108   55   57 1    
   109   55  121 1    
   110   56  122 1    
   111   56  123 1    
   112   56  124 1    
   113   57   58 2    
   114   57   59 am   BACKBONE|DICT|INTERRES
   115   59   60 1    
   116   59  125 1    
   117   60   61 1    
   118   60   62 1    
   119   60  126 1    
   120   61  127 1    
   121   61  128 1    
   122   61  129 1    
   123   62   63 2    
   124   62   64 am   BACKBONE|DICT|INTERRES
   125   64   65 1    
   126   64  130 1    
   127   65   66 1    
   128   65   69 1    
   129   65  131 1    
   130   66   67 am   BACKBONE|DICT|INTERRES
   131   66   68 2    
   132   67  132 1    
   133   67  133 1    
   134   69   70 1    
   135   69  134 1    
   136   69  135 1    
   137   70   71 1    
   138   71  136 1    
   139   71  137 1    
@<TRIPOS>SUBSTRUCTURE
     1 UNK         1 GROUP             0       ****    0 ROOT    
