@<TRIPOS>MOLECULE
3R136
137   139    1
SMALL
USER_CHARGES


@<TRIPOS>ATOM
      1 CA         27.9614   22.9014   -2.1772 C.3       0 UNK        -0.1979 
      2 C          27.9994   23.6637   -0.8623 C.2       0 UNK         0.4864 
      3 O          27.5526   24.8095   -0.8146 O.2       0 UNK        -0.5359 
      4 N          28.5333   23.0426    0.1972 N.am      1 UNK        -0.4318 
      5 CA         28.6186   23.6039    1.5492 C.3       1 UNK         0.0824 
      6 C6         29.5510   22.7509    2.4494 C.3       12 UNK        -0.0944 
      7 S7         30.4674   23.7586    3.6628 S.3       12 UNK        -0.2672 
      8 C8         32.1975   23.5129    3.1408 C.3       12 UNK         0.0333 
      9 C9         32.6520   24.5507    2.1221 C.ar      12 UNK        -0.0807 
     10 C10        33.5741   25.5340    2.4937 C.ar      12 UNK        -0.0894 
     11 C11        34.0157   26.4819    1.5663 C.ar      12 UNK        -0.0804 
     12 C12        33.5290   26.4449    0.2576 C.ar      12 UNK        -0.0824 
     13 C13        32.5882   25.4833   -0.1220 C.ar      12 UNK        -0.0762 
     14 C14        32.1685   24.5270    0.8093 C.ar      12 UNK        -0.0782 
     15 C15        31.9878   25.5088   -1.5239 C.3       12 UNK         0.0230 
     16 S16        31.1096   27.0727   -1.8742 S.3       12 UNK        -0.2608 
     17 C17        30.1273   27.2650   -0.3510 C.3       12 UNK        -0.0989 
     18 CA         28.8587   28.1280   -0.5278 C.3       5 UNK         0.0716 
     19 N          27.9152   27.5082   -1.4491 N.am      5 UNK        -0.4135 
     20 C          27.2250   28.1366   -2.4045 C.2       4 UNK         0.5031 
     21 O          27.3886   29.3155   -2.7222 O.2       4 UNK        -0.5229 
     22 CA         26.1392   27.3050   -3.1074 C.3       4 UNK         0.0329 
     23 CB         26.7516   26.4491   -4.2281 C.3       4 UNK        -0.2001 
     24 N          25.4233   26.4380   -2.1685 N.am      4 UNK        -0.4303 
     25 C          24.5645   26.8672   -1.2342 C.2       3 UNK         0.5044 
     26 O          24.2124   28.0407   -1.1098 O.2       3 UNK        -0.5152 
     27 CA         24.0178   25.8158   -0.2631 C.3       3 UNK         0.0319 
     28 CB         23.9023   24.4003   -0.8714 C.3       3 UNK        -0.2001 
     29 N          24.8726   25.7966    0.9189 N.am      3 UNK        -0.4354 
     30 C          24.5081   25.3657    2.1318 C.2       2 UNK         0.4964 
     31 O          23.3743   24.9636    2.4020 O.2       2 UNK        -0.5047 
     32 CA         25.6048   25.3794    3.2173 C.3       2 UNK         0.0288 
     33 CB         25.2110   24.5895    4.4853 C.3       2 UNK        -0.2113 
     34 N          26.9090   24.9452    2.6966 N.am      2 UNK        -0.4145 
     35 C          27.2119   23.7502    2.1670 C.2       1 UNK         0.5006 
     36 O          26.4452   22.7834    2.1432 O.2       1 UNK        -0.5103 
     37 C          28.1662   28.2544    0.8367 C.2       5 UNK         0.5055 
     38 O          27.3458   27.4011    1.1891 O.2       5 UNK        -0.5220 
     39 N          28.5673   29.2603    1.6200 N.am      6 UNK        -0.4450 
     40 CA         28.2731   29.3211    3.0522 C.3       6 UNK         0.0367 
     41 CB         28.4284   30.7667    3.5508 C.3       6 UNK        -0.1929 
     42 C          29.2214   28.3758    3.8083 C.2       6 UNK         0.5070 
     43 O          30.3924   28.2734    3.4412 O.2       6 UNK        -0.5237 
     44 N          28.7138   27.7119    4.8510 N.am      7 UNK        -0.4739 
     45 CA         29.5144   26.8464    5.7168 C.3       7 UNK         0.0276 
     46 CB         28.6288   25.7131    6.2591 C.3       7 UNK        -0.1927 
     47 C          30.0990   27.6797    6.8739 C.2       7 UNK         0.5013 
     48 O          29.3175   28.3251    7.5732 O.2       7 UNK        -0.5193 
     49 N          31.4148   27.6826    7.1260 N.am      8 UNK        -0.4253 
     50 CA         32.5057   27.0937    6.3430 C.3       8 UNK         0.0242 
     51 CB         32.6567   25.5922    6.6661 C.3       8 UNK        -0.2000 
     52 C          33.8017   27.8945    6.5692 C.2       8 UNK         0.4948 
     53 O          34.8845   27.3123    6.6473 O.2       8 UNK        -0.5275 
     54 N          33.6645   29.2209    6.6761 N.am      9 UNK        -0.4246 
     55 CA         34.7434   30.2018    6.7406 C.3       9 UNK         0.0261 
     56 CB         35.0297   30.5782    8.2035 C.3       9 UNK        -0.1959 
     57 C          34.2680   31.4124    5.9328 C.2       9 UNK         0.5033 
     58 O          33.0695   31.7112    5.9621 O.2       9 UNK        -0.5390 
     59 N          35.1811   32.0439    5.1795 N.am      10 UNK        -0.4215 
     60 CA         34.9571   33.0735    4.1437 C.3       10 UNK         0.0240 
     61 CB         34.2925   34.3416    4.7159 C.3       10 UNK        -0.1982 
     62 C          34.1973   32.5420    2.9095 C.2       10 UNK         0.4970 
     63 O          34.6335   32.7722    1.7820 O.2       10 UNK        -0.4916 
     64 N          33.1148   31.8008    3.1612 N.am      11 UNK        -0.4279 
     65 CA         32.3889   30.8979    2.2567 C.3       11 UNK         0.1003 
     66 C          31.4928   31.5727    1.1823 C.2       11 UNK         0.5709 
     67 N          31.5041   32.8903    1.0312 N.am      11 UNK        -0.7358 
     68 O          30.7184   30.8877    0.5179 O.2       11 UNK        -0.4999 
     69 C69        33.2837   29.7715    1.6650 C.3       12 UNK        -0.0954 
     70 S70        34.2067   28.8635    2.9544 S.3       12 UNK        -0.2268 
     71 C71        35.0095   27.5526    1.9858 C.3       12 UNK         0.0203 
     72 H72        28.5342   23.4360   -2.9345 H         1 UNK         0.0888 
     73 H73        28.3786   21.8993   -2.0803 H         1 UNK         0.0888 
     74 H74        26.9339   22.8092   -2.5276 H         1 UNK         0.0888 
     75 H75        28.8362   22.0841    0.1024 H         1 UNK         0.3017 
     76 H76        29.0517   24.6003    1.4414 H         1 UNK         0.0873 
     77 H77        30.2727   22.2064    1.8399 H         1 UNK         0.0745 
     78 H78        29.0005   21.9740    2.9844 H         1 UNK         0.0745 
     79 H79        32.3414   22.5087    2.7404 H         1 UNK         0.0705 
     80 H80        32.8246   23.5651    4.0320 H         1 UNK         0.0705 
     81 H81        33.9489   25.5693    3.5076 H         1 UNK         0.1334 
     82 H82        33.8522   27.1880   -0.4588 H         1 UNK         0.1417 
     83 H83        31.4495   23.7759    0.5169 H         1 UNK         0.1562 
     84 H84        32.7806   25.3708   -2.2602 H         1 UNK         0.0748 
     85 H85        31.2900   24.6812   -1.6613 H         1 UNK         0.0748 
     86 H86        30.7805   27.6977    0.4102 H         1 UNK         0.0940 
     87 H87        29.8560   26.2726    0.0119 H         1 UNK         0.0940 
     88 H88        29.1429   29.1219   -0.8797 H         1 UNK         0.0703 
     89 H89        27.6858   26.5384   -1.2324 H         1 UNK         0.3081 
     90 H90        25.4210   27.9957   -3.5545 H         1 UNK         0.0719 
     91 H91        27.4727   25.7289   -3.8391 H         1 UNK         0.0809 
     92 H92        25.9840   25.8970   -4.7707 H         1 UNK         0.0809 
     93 H93        27.2746   27.0743   -4.9530 H         1 UNK         0.0809 
     94 H94        25.7080   25.4688   -2.1381 H         1 UNK         0.2990 
     95 H95        23.0180   26.1463    0.0267 H         1 UNK         0.0690 
     96 H96        23.3512   23.7346   -0.2070 H         1 UNK         0.0788 
     97 H97        24.8775   23.9465   -1.0475 H         1 UNK         0.0788 
     98 H98        23.3646   24.4207   -1.8203 H         1 UNK         0.0788 
     99 H99        25.8103   26.1753    0.8020 H         1 UNK         0.2993 
    100 H100       25.7262   26.4248    3.5051 H         1 UNK         0.0949 
    101 H101       25.9903   24.6322    5.2440 H         1 UNK         0.0767 
    102 H102       24.3054   25.0001    4.9336 H         1 UNK         0.0767 
    103 H103       25.0146   23.5397    4.2659 H         1 UNK         0.0767 
    104 H104       27.5805   25.6937    2.5783 H         1 UNK         0.3013 
    105 H105       29.2980   29.8778    1.2742 H         1 UNK         0.3121 
    106 H106       27.2403   29.0070    3.2203 H         1 UNK         0.0774 
    107 H107       28.1730   30.8419    4.6086 H         1 UNK         0.0815 
    108 H108       29.4491   31.1309    3.4387 H         1 UNK         0.0815 
    109 H109       27.7695   31.4455    3.0092 H         1 UNK         0.0815 
    110 H110       27.7659   27.8949    5.1478 H         1 UNK         0.2987 
    111 H111       30.3001   26.3788    5.1257 H         1 UNK         0.0949 
    112 H112       27.7641   26.0927    6.8048 H         1 UNK         0.0806 
    113 H113       28.2686   25.0799    5.4491 H         1 UNK         0.0806 
    114 H114       29.1903   25.0719    6.9397 H         1 UNK         0.0806 
    115 H115       31.7262   28.2115    7.9293 H         1 UNK         0.3010 
    116 H116       32.2952   27.2080    5.2778 H         1 UNK         0.0829 
    117 H117       31.7483   25.0320    6.4481 H         1 UNK         0.0813 
    118 H118       33.4549   25.1430    6.0742 H         1 UNK         0.0813 
    119 H119       32.9015   25.4341    7.7169 H         1 UNK         0.0813 
    120 H120       32.7525   29.6387    6.5321 H         1 UNK         0.3038 
    121 H121       35.6453   29.7936    6.2789 H         1 UNK         0.0769 
    122 H122       34.1511   31.0048    8.6894 H         1 UNK         0.0811 
    123 H123       35.8304   31.3160    8.2675 H         1 UNK         0.0811 
    124 H124       35.3422   29.7081    8.7811 H         1 UNK         0.0811 
    125 H125       36.1312   31.7001    5.2249 H         1 UNK         0.3204 
    126 H126       35.9513   33.3590    3.7959 H         1 UNK         0.0748 
    127 H127       34.2471   35.1281    3.9615 H         1 UNK         0.0771 
    128 H128       33.2712   34.1589    5.0510 H         1 UNK         0.0771 
    129 H129       34.8562   34.7360    5.5613 H         1 UNK         0.0771 
    130 H130       32.8497   31.7274    4.1404 H         1 UNK         0.2980 
    131 H131       31.6773   30.4085    2.9182 H         1 UNK         0.0545 
    132 H132       32.1445   33.4551    1.5657 H         1 UNK         0.3459 
    133 H133       30.8991   33.3155    0.3469 H         1 UNK         0.3459 
    134 H134       33.9947   30.1799    0.9453 H         1 UNK         0.0616 
    135 H135       32.6688   29.0533    1.1214 H         1 UNK         0.0616 
    136 H136       35.5052   27.9910    1.1183 H         1 UNK         0.0634 
    137 H137       35.7947   27.0995    2.5926 H         1 UNK         0.0634 
@<TRIPOS>BOND
     1    1    2 1    
     2    1   72 1    
     3    1   73 1    
     4    1   74 1    
     5    2    3 2    
     6    2    4 am   BACKBONE|DICT|INTERRES
     7    4    5 1    
     8    4   75 1    
     9    5    6 1    
    10    5   35 1    
    11    5   76 1    
    12    6    7 1    
    13    6   77 1    
    14    6   78 1    
    15    7    8 1    
    16    8    9 1    
    17    8   79 1    
    18    8   80 1    
    19    9   10 ar   
    20    9   14 ar   
    21   10   11 ar   
    22   10   81 1    
    23   11   12 ar   
    24   11   71 1    
    25   12   13 ar   
    26   12   82 1    
    27   13   14 ar   
    28   13   15 1    
    29   14   83 1    
    30   15   16 1    
    31   15   84 1    
    32   15   85 1    
    33   16   17 1    
    34   17   18 1    
    35   17   86 1    
    36   17   87 1    
    37   18   19 1    
    38   18   37 1    
    39   18   88 1    
    40   19   20 am   BACKBONE|DICT|INTERRES
    41   19   89 1    
    42   20   21 2    
    43   20   22 1    
    44   22   23 1    
    45   22   24 1    
    46   22   90 1    
    47   23   91 1    
    48   23   92 1    
    49   23   93 1    
    50   24   25 am   BACKBONE|DICT|INTERRES
    51   24   94 1    
    52   25   26 2    
    53   25   27 1    
    54   27   28 1    
    55   27   29 1    
    56   27   95 1    
    57   28   96 1    
    58   28   97 1    
    59   28   98 1    
    60   29   30 am   BACKBONE|DICT|INTERRES
    61   29   99 1    
    62   30   31 2    
    63   30   32 1    
    64   32   33 1    
    65   32   34 1    
    66   32  100 1    
    67   33  101 1    
    68   33  102 1    
    69   33  103 1    
    70   34   35 am   BACKBONE|DICT|INTERRES
    71   34  104 1    
    72   35   36 2    
    73   37   38 2    
    74   37   39 am   BACKBONE|DICT|INTERRES
    75   39   40 1    
    76   39  105 1    
    77   40   41 1    
    78   40   42 1    
    79   40  106 1    
    80   41  107 1    
    81   41  108 1    
    82   41  109 1    
    83   42   43 2    
    84   42   44 am   BACKBONE|DICT|INTERRES
    85   44   45 1    
    86   44  110 1    
    87   45   46 1    
    88   45   47 1    
    89   45  111 1    
    90   46  112 1    
    91   46  113 1    
    92   46  114 1    
    93   47   48 2    
    94   47   49 am   BACKBONE|DICT|INTERRES
    95   49   50 1    
    96   49  115 1    
    97   50   51 1    
    98   50   52 1    
    99   50  116 1    
   100   51  117 1    
   101   51  118 1    
   102   51  119 1    
   103   52   53 2    
   104   52   54 am   BACKBONE|DICT|INTERRES
   105   54   55 1    
   106   54  120 1    
   107   55   56 1    
   108   55   57 1    
   109   55  121 1    
   110   56  122 1    
   111   56  123 1    
   112   56  124 1    
   113   57   58 2    
   114   57   59 am   BACKBONE|DICT|INTERRES
   115   59   60 1    
   116   59  125 1    
   117   60   61 1    
   118   60   62 1    
   119   60  126 1    
   120   61  127 1    
   121   61  128 1    
   122   61  129 1    
   123   62   63 2    
   124   62   64 am   BACKBONE|DICT|INTERRES
   125   64   65 1    
   126   64  130 1    
   127   65   66 1    
   128   65   69 1    
   129   65  131 1    
   130   66   67 am   BACKBONE|DICT|INTERRES
   131   66   68 2    
   132   67  132 1    
   133   67  133 1    
   134   69   70 1    
   135   69  134 1    
   136   69  135 1    
   137   70   71 1    
   138   71  136 1    
   139   71  137 1    
@<TRIPOS>SUBSTRUCTURE
     1 UNK         1 GROUP             0       ****    0 ROOT    
