@<TRIPOS>MOLECULE
3R136
137   139    1
SMALL
USER_CHARGES


@<TRIPOS>ATOM
      1 CA         30.6324   24.4169    5.3554 C.3       0 UNK        -0.1979 
      2 C          29.4154   24.2961    4.4520 C.2       0 UNK         0.4864 
      3 O          28.2853   24.3362    4.9427 O.2       0 UNK        -0.5359 
      4 N          29.6267   24.1446    3.1371 N.am      1 UNK        -0.4318 
      5 CA         28.5724   23.9537    2.1328 C.3       1 UNK         0.0824 
      6 C6         29.0556   23.1307    0.9098 C.3       12 UNK        -0.0944 
      7 S7         29.8141   21.5393    1.4189 S.3       12 UNK        -0.2672 
      8 C8         31.4341   21.4749    0.5689 C.3       12 UNK         0.0333 
      9 C9         32.1479   22.8188    0.5139 C.ar      12 UNK        -0.0807 
     10 C10        32.6420   23.4180    1.6753 C.ar      12 UNK        -0.0894 
     11 C11        33.2179   24.6913    1.6208 C.ar      12 UNK        -0.0804 
     12 C12        33.2935   25.3634    0.3965 C.ar      12 UNK        -0.0824 
     13 C13        32.8071   24.7739   -0.7749 C.ar      12 UNK        -0.0762 
     14 C14        32.2696   23.4829   -0.7089 C.ar      12 UNK        -0.0782 
     15 C15        32.8524   25.5668   -2.0840 C.3       12 UNK         0.0230 
     16 S16        31.5726   25.1268   -3.3192 S.3       12 UNK        -0.2608 
     17 C17        30.0272   25.2261   -2.3497 C.3       12 UNK        -0.0989 
     18 CA         29.1080   26.4037   -2.7467 C.3       5 UNK         0.0716 
     19 N          27.7362   26.1780   -2.2967 N.am      5 UNK        -0.4135 
     20 C          26.7833   25.5852   -3.0265 C.2       4 UNK         0.5031 
     21 O          26.9459   25.1905   -4.1821 O.2       4 UNK        -0.5229 
     22 CA         25.4134   25.3792   -2.3563 C.3       4 UNK         0.0329 
     23 CB         25.3521   23.9962   -1.6877 C.3       4 UNK        -0.2001 
     24 N          25.0931   26.4016   -1.3605 N.am      4 UNK        -0.4303 
     25 C          24.8605   27.6956   -1.6118 C.2       3 UNK         0.5044 
     26 O          24.8340   28.1761   -2.7451 O.2       3 UNK        -0.5152 
     27 CA         24.6491   28.6215   -0.3996 C.3       3 UNK         0.0319 
     28 CB         23.1639   28.6838    0.0072 C.3       3 UNK        -0.2001 
     29 N          25.5202   28.3215    0.7473 N.am      3 UNK        -0.4354 
     30 C          25.5104   27.2556    1.5594 C.2       2 UNK         0.4964 
     31 O          24.7096   26.3224    1.4723 O.2       2 UNK        -0.5047 
     32 CA         26.6023   27.2133    2.6369 C.3       2 UNK         0.0288 
     33 CB         26.0332   27.5911    4.0134 C.3       2 UNK        -0.2113 
     34 N          27.2436   25.9055    2.7211 N.am      2 UNK        -0.4145 
     35 C          27.9629   25.3205    1.7546 C.2       1 UNK         0.5006 
     36 O          28.1870   25.8379    0.6537 O.2       1 UNK        -0.5103 
     37 C          29.6325   27.7477   -2.2174 C.2       5 UNK         0.5055 
     38 O          30.1069   28.5605   -3.0131 O.2       5 UNK        -0.5220 
     39 N          29.5512   27.9598   -0.8966 N.am      6 UNK        -0.4450 
     40 CA         30.1146   29.1284   -0.2195 C.3       6 UNK         0.0367 
     41 CB         31.5432   28.7992    0.2681 C.3       6 UNK        -0.1929 
     42 C          29.1593   29.6074    0.8825 C.2       6 UNK         0.5070 
     43 O          27.9580   29.7239    0.6350 O.2       6 UNK        -0.5237 
     44 N          29.6939   29.8797    2.0747 N.am      7 UNK        -0.4739 
     45 CA         28.9792   30.3074    3.2708 C.3       7 UNK         0.0276 
     46 CB         28.9234   31.8436    3.3209 C.3       7 UNK        -0.1927 
     47 C          29.7431   29.7507    4.4728 C.2       7 UNK         0.5013 
     48 O          30.9683   29.6269    4.3986 O.2       7 UNK        -0.5193 
     49 N          29.0366   29.4807    5.5772 N.am      8 UNK        -0.4253 
     50 CA         29.6173   28.9403    6.8141 C.3       8 UNK         0.0242 
     51 CB         28.4902   28.6142    7.8068 C.3       8 UNK        -0.2000 
     52 C          30.6713   29.8567    7.4669 C.2       8 UNK         0.4948 
     53 O          31.5764   29.3538    8.1312 O.2       8 UNK        -0.5275 
     54 N          30.5483   31.1732    7.2452 N.am      9 UNK        -0.4246 
     55 CA         31.5227   32.1844    7.6595 C.3       9 UNK         0.0261 
     56 CB         30.8140   33.5452    7.7656 C.3       9 UNK        -0.1959 
     57 C          32.7357   32.2870    6.7139 C.2       9 UNK         0.5033 
     58 O          33.7731   32.7981    7.1385 O.2       9 UNK        -0.5390 
     59 N          32.5925   31.8340    5.4592 N.am      10 UNK        -0.4215 
     60 CA         33.6596   31.8268    4.4551 C.3       10 UNK         0.0240 
     61 CB         33.0578   31.9880    3.0485 C.3       10 UNK        -0.1982 
     62 C          34.5006   30.5457    4.5493 C.2       10 UNK         0.4970 
     63 O          35.7237   30.6187    4.4228 O.2       10 UNK        -0.4916 
     64 N          33.8358   29.4062    4.7811 N.am      11 UNK        -0.4279 
     65 CA         34.4581   28.1068    5.0661 C.3       11 UNK         0.1003 
     66 C          35.3135   28.1121    6.3651 C.2       11 UNK         0.5709 
     67 N          36.3483   27.2842    6.4245 N.am      11 UNK        -0.7358 
     68 O          35.0331   28.8245    7.3270 O.2       11 UNK        -0.4999 
     69 C69        33.3958   26.9798    5.1171 C.3       12 UNK        -0.0954 
     70 S70        32.6456   26.6509    3.4885 S.3       12 UNK        -0.2268 
     71 C71        33.7570   25.3435    2.8834 C.3       12 UNK         0.0203 
     72 H72        30.5298   23.7551    6.2148 H         1 UNK         0.0888 
     73 H73        30.7264   25.4388    5.7211 H         1 UNK         0.0888 
     74 H74        31.5513   24.1496    4.8352 H         1 UNK         0.0888 
     75 H75        30.5694   24.1544    2.7740 H         1 UNK         0.3017 
     76 H76        27.7686   23.3723    2.5910 H         1 UNK         0.0873 
     77 H77        29.7484   23.7152    0.3114 H         1 UNK         0.0745 
     78 H78        28.2143   22.9073    0.2517 H         1 UNK         0.0745 
     79 H79        32.0704   20.7498    1.0782 H         1 UNK         0.0705 
     80 H80        31.2771   21.0832   -0.4373 H         1 UNK         0.0705 
     81 H81        32.5621   22.8967    2.6197 H         1 UNK         0.1334 
     82 H82        33.7212   26.3563    0.3625 H         1 UNK         0.1417 
     83 H83        31.8927   23.0086   -1.6040 H         1 UNK         0.1562 
     84 H84        33.8343   25.4302   -2.5386 H         1 UNK         0.0748 
     85 H85        32.7569   26.6323   -1.8735 H         1 UNK         0.0748 
     86 H86        30.2383   25.2609   -1.2817 H         1 UNK         0.0940 
     87 H87        29.5054   24.2811   -2.5103 H         1 UNK         0.0940 
     88 H88        29.1030   26.4823   -3.8364 H         1 UNK         0.0703 
     89 H89        27.5266   26.4331   -1.3401 H         1 UNK         0.3081 
     90 H90        24.6522   25.4204   -3.1382 H         1 UNK         0.0719 
     91 H91        26.0747   23.9089   -0.8752 H         1 UNK         0.0809 
     92 H92        24.3615   23.7971   -1.2781 H         1 UNK         0.0809 
     93 H93        25.5700   23.2042   -2.4058 H         1 UNK         0.0809 
     94 H94        25.0420   26.1067   -0.3892 H         1 UNK         0.2990 
     95 H95        24.9397   29.6224   -0.7234 H         1 UNK         0.0690 
     96 H96        23.0078   29.3795    0.8316 H         1 UNK         0.0788 
     97 H97        22.7796   27.7100    0.3118 H         1 UNK         0.0788 
     98 H98        22.5489   29.0255   -0.8263 H         1 UNK         0.0788 
     99 H99        26.3000   28.9718    0.8470 H         1 UNK         0.2993 
    100 H100       27.3844   27.9213    2.3775 H         1 UNK         0.0949 
    101 H101       25.5985   28.5914    3.9960 H         1 UNK         0.0767 
    102 H102       25.2491   26.8999    4.3258 H         1 UNK         0.0767 
    103 H103       26.8083   27.5838    4.7800 H         1 UNK         0.0767 
    104 H104       27.1765   25.4167    3.6079 H         1 UNK         0.3013 
    105 H105       29.1183   27.2620   -0.2962 H         1 UNK         0.3121 
    106 H106       30.1825   29.9641   -0.9191 H         1 UNK         0.0774 
    107 H107       32.1832   28.5164   -0.5665 H         1 UNK         0.0815 
    108 H108       31.5466   27.9740    0.9812 H         1 UNK         0.0815 
    109 H109       32.0183   29.6591    0.7414 H         1 UNK         0.0815 
    110 H110       30.6752   29.6870    2.2346 H         1 UNK         0.2987 
    111 H111       27.9640   29.9095    3.2733 H         1 UNK         0.0949 
    112 H112       29.9204   32.2856    3.3350 H         1 UNK         0.0806 
    113 H113       28.3943   32.2463    2.4569 H         1 UNK         0.0806 
    114 H114       28.3971   32.1906    4.2109 H         1 UNK         0.0806 
    115 H115       28.0391   29.6389    5.5775 H         1 UNK         0.3010 
    116 H116       30.1228   28.0071    6.5556 H         1 UNK         0.0829 
    117 H117       27.7950   27.8834    7.3928 H         1 UNK         0.0813 
    118 H118       28.8926   28.1885    8.7272 H         1 UNK         0.0813 
    119 H119       27.9218   29.5038    8.0810 H         1 UNK         0.0813 
    120 H120       29.7512   31.4966    6.7171 H         1 UNK         0.3038 
    121 H121       31.9013   31.9209    8.6496 H         1 UNK         0.0769 
    122 H122       30.4100   33.8681    6.8051 H         1 UNK         0.0811 
    123 H123       31.5044   34.3189    8.1046 H         1 UNK         0.0811 
    124 H124       29.9931   33.5108    8.4822 H         1 UNK         0.0811 
    125 H125       31.7418   31.3452    5.2100 H         1 UNK         0.3204 
    126 H126       34.3237   32.6761    4.6300 H         1 UNK         0.0748 
    127 H127       32.4876   32.9133    2.9656 H         1 UNK         0.0771 
    128 H128       33.8436   32.0237    2.2927 H         1 UNK         0.0771 
    129 H129       32.3967   31.1623    2.7882 H         1 UNK         0.0771 
    130 H130       32.8212   29.4260    4.8083 H         1 UNK         0.2980 
    131 H131       35.1385   27.8975    4.2383 H         1 UNK         0.0545 
    132 H132       36.9082   27.2620    7.2624 H         1 UNK         0.3459 
    133 H133       36.5862   26.6869    5.6482 H         1 UNK         0.3459 
    134 H134       33.8235   26.0498    5.4958 H         1 UNK         0.0616 
    135 H135       32.5987   27.2453    5.8141 H         1 UNK         0.0616 
    136 H136       33.8969   24.5919    3.6617 H         1 UNK         0.0634 
    137 H137       34.7409   25.7712    2.6856 H         1 UNK         0.0634 
@<TRIPOS>BOND
     1    1    2 1    
     2    1   72 1    
     3    1   73 1    
     4    1   74 1    
     5    2    3 2    
     6    2    4 am   BACKBONE|DICT|INTERRES
     7    4    5 1    
     8    4   75 1    
     9    5    6 1    
    10    5   35 1    
    11    5   76 1    
    12    6    7 1    
    13    6   77 1    
    14    6   78 1    
    15    7    8 1    
    16    8    9 1    
    17    8   79 1    
    18    8   80 1    
    19    9   10 ar   
    20    9   14 ar   
    21   10   11 ar   
    22   10   81 1    
    23   11   12 ar   
    24   11   71 1    
    25   12   13 ar   
    26   12   82 1    
    27   13   14 ar   
    28   13   15 1    
    29   14   83 1    
    30   15   16 1    
    31   15   84 1    
    32   15   85 1    
    33   16   17 1    
    34   17   18 1    
    35   17   86 1    
    36   17   87 1    
    37   18   19 1    
    38   18   37 1    
    39   18   88 1    
    40   19   20 am   BACKBONE|DICT|INTERRES
    41   19   89 1    
    42   20   21 2    
    43   20   22 1    
    44   22   23 1    
    45   22   24 1    
    46   22   90 1    
    47   23   91 1    
    48   23   92 1    
    49   23   93 1    
    50   24   25 am   BACKBONE|DICT|INTERRES
    51   24   94 1    
    52   25   26 2    
    53   25   27 1    
    54   27   28 1    
    55   27   29 1    
    56   27   95 1    
    57   28   96 1    
    58   28   97 1    
    59   28   98 1    
    60   29   30 am   BACKBONE|DICT|INTERRES
    61   29   99 1    
    62   30   31 2    
    63   30   32 1    
    64   32   33 1    
    65   32   34 1    
    66   32  100 1    
    67   33  101 1    
    68   33  102 1    
    69   33  103 1    
    70   34   35 am   BACKBONE|DICT|INTERRES
    71   34  104 1    
    72   35   36 2    
    73   37   38 2    
    74   37   39 am   BACKBONE|DICT|INTERRES
    75   39   40 1    
    76   39  105 1    
    77   40   41 1    
    78   40   42 1    
    79   40  106 1    
    80   41  107 1    
    81   41  108 1    
    82   41  109 1    
    83   42   43 2    
    84   42   44 am   BACKBONE|DICT|INTERRES
    85   44   45 1    
    86   44  110 1    
    87   45   46 1    
    88   45   47 1    
    89   45  111 1    
    90   46  112 1    
    91   46  113 1    
    92   46  114 1    
    93   47   48 2    
    94   47   49 am   BACKBONE|DICT|INTERRES
    95   49   50 1    
    96   49  115 1    
    97   50   51 1    
    98   50   52 1    
    99   50  116 1    
   100   51  117 1    
   101   51  118 1    
   102   51  119 1    
   103   52   53 2    
   104   52   54 am   BACKBONE|DICT|INTERRES
   105   54   55 1    
   106   54  120 1    
   107   55   56 1    
   108   55   57 1    
   109   55  121 1    
   110   56  122 1    
   111   56  123 1    
   112   56  124 1    
   113   57   58 2    
   114   57   59 am   BACKBONE|DICT|INTERRES
   115   59   60 1    
   116   59  125 1    
   117   60   61 1    
   118   60   62 1    
   119   60  126 1    
   120   61  127 1    
   121   61  128 1    
   122   61  129 1    
   123   62   63 2    
   124   62   64 am   BACKBONE|DICT|INTERRES
   125   64   65 1    
   126   64  130 1    
   127   65   66 1    
   128   65   69 1    
   129   65  131 1    
   130   66   67 am   BACKBONE|DICT|INTERRES
   131   66   68 2    
   132   67  132 1    
   133   67  133 1    
   134   69   70 1    
   135   69  134 1    
   136   69  135 1    
   137   70   71 1    
   138   71  136 1    
   139   71  137 1    
@<TRIPOS>SUBSTRUCTURE
     1 UNK         1 GROUP             0       ****    0 ROOT    
