@<TRIPOS>MOLECULE
3R136
137   139    1
SMALL
USER_CHARGES


@<TRIPOS>ATOM
      1 CA         30.1016   16.8074    0.8626 C.3       0 UNK        -0.1979 
      2 C          29.5821   18.0568    0.1662 C.2       0 UNK         0.4864 
      3 O          29.4480   18.0634   -1.0584 O.2       0 UNK        -0.5359 
      4 N          29.2888   19.1101    0.9354 N.am      1 UNK        -0.4318 
      5 CA         28.7580   20.3856    0.4627 C.3       1 UNK         0.0824 
      6 C6         29.8917   21.3372    0.0036 C.3       12 UNK        -0.0944 
      7 S7         29.3130   22.7129   -1.0460 S.3       12 UNK        -0.2672 
      8 C8         29.1190   24.0802    0.1414 C.3       12 UNK         0.0333 
      9 C9         30.4421   24.5648    0.7165 C.ar      12 UNK        -0.0807 
     10 C10        30.8953   24.0938    1.9514 C.ar      12 UNK        -0.0894 
     11 C11        32.1002   24.5503    2.4918 C.ar      12 UNK        -0.0804 
     12 C12        32.8570   25.4922    1.7843 C.ar      12 UNK        -0.0824 
     13 C13        32.3961   25.9996    0.5639 C.ar      12 UNK        -0.0762 
     14 C14        31.1963   25.5176    0.0297 C.ar      12 UNK        -0.0782 
     15 C15        33.1863   27.0638   -0.1916 C.3       12 UNK         0.0230 
     16 S16        33.2815   28.6840    0.6576 S.3       12 UNK        -0.2608 
     17 C17        31.6470   28.9121    1.4359 C.3       12 UNK        -0.0989 
     18 CA         30.4360   28.9090    0.4695 C.3       5 UNK         0.0716 
     19 N          29.2525   28.4015    1.1617 N.am      5 UNK        -0.4135 
     20 C          28.1978   27.8114    0.5963 C.2       4 UNK         0.5031 
     21 O          28.1315   27.5167   -0.5985 O.2       4 UNK        -0.5229 
     22 CA         27.0099   27.5294    1.5356 C.3       4 UNK         0.0329 
     23 CB         25.6760   27.4693    0.7697 C.3       4 UNK        -0.2001 
     24 N          27.1502   26.3013    2.3209 N.am      4 UNK        -0.4303 
     25 C          28.0848   26.0202    3.2364 C.2       3 UNK         0.5044 
     26 O          29.0359   26.7593    3.4897 O.2       3 UNK        -0.5152 
     27 CA         27.9280   24.7185    4.0519 C.3       3 UNK         0.0319 
     28 CB         27.2020   25.0116    5.3781 C.3       3 UNK        -0.2001 
     29 N          27.3227   23.5582    3.3727 N.am      3 UNK        -0.4354 
     30 C          26.1005   23.4119    2.8414 C.2       2 UNK         0.4964 
     31 O          25.2703   24.3199    2.7813 O.2       2 UNK        -0.5047 
     32 CA         25.7571   22.0215    2.2651 C.3       2 UNK         0.0288 
     33 CB         24.3671   21.9862    1.6004 C.3       2 UNK        -0.2113 
     34 N          26.7472   21.5249    1.3013 N.am      2 UNK        -0.4145 
     35 C          27.9231   20.9659    1.6157 C.2       1 UNK         0.5006 
     36 O          28.3576   20.9005    2.7695 O.2       1 UNK        -0.5103 
     37 C          30.1518   30.2976   -0.1371 C.2       5 UNK         0.5055 
     38 O          30.7458   30.6500   -1.1571 O.2       5 UNK        -0.5220 
     39 N          29.2225   31.0418    0.4861 N.am      6 UNK        -0.4450 
     40 CA         28.6429   32.3316    0.0914 C.3       6 UNK         0.0367 
     41 CB         27.9820   32.2685   -1.2998 C.3       6 UNK        -0.1929 
     42 C          29.6321   33.4980    0.2045 C.2       6 UNK         0.5070 
     43 O          29.3866   34.4181    0.9836 O.2       6 UNK        -0.5237 
     44 N          30.7620   33.4104   -0.5083 N.am      7 UNK        -0.4739 
     45 CA         31.8725   34.3696   -0.4613 C.3       7 UNK         0.0276 
     46 CB         32.9000   34.0043   -1.5442 C.3       7 UNK        -0.1927 
     47 C          32.5487   34.4487    0.9201 C.2       7 UNK         0.5013 
     48 O          33.0857   35.4987    1.2738 O.2       7 UNK        -0.5193 
     49 N          32.4782   33.3457    1.6747 N.am      8 UNK        -0.4253 
     50 CA         32.9109   33.2285    3.0657 C.3       8 UNK         0.0242 
     51 CB         34.1513   32.3186    3.1231 C.3       8 UNK        -0.2000 
     52 C          31.7631   32.7196    3.9604 C.2       8 UNK         0.4948 
     53 O          32.0322   32.1386    5.0116 O.2       8 UNK        -0.5275 
     54 N          30.5055   32.9351    3.5384 N.am      9 UNK        -0.4246 
     55 CA         29.2695   32.4921    4.1959 C.3       9 UNK         0.0261 
     56 CB         29.0254   33.2975    5.4930 C.3       9 UNK        -0.1959 
     57 C          29.2318   30.9601    4.3788 C.2       9 UNK         0.5033 
     58 O          29.2279   30.2453    3.3733 O.2       9 UNK        -0.5390 
     59 N          29.1956   30.4883    5.6317 N.am      10 UNK        -0.4215 
     60 CA         29.2329   29.0758    6.0022 C.3       10 UNK         0.0240 
     61 CB         28.4678   28.8769    7.3229 C.3       10 UNK        -0.1982 
     62 C          30.6940   28.6098    6.1133 C.2       10 UNK         0.4970 
     63 O          31.3322   28.8676    7.1353 O.2       10 UNK        -0.4916 
     64 N          31.1913   27.9593    5.0560 N.am      11 UNK        -0.4279 
     65 CA         32.5454   27.3882    4.9107 C.3       11 UNK         0.1003 
     66 C          33.7584   28.3596    5.0465 C.2       11 UNK         0.5709 
     67 N          33.5821   29.6659    5.1629 N.am      11 UNK        -0.7358 
     68 O          34.9053   27.9201    5.0038 O.2       11 UNK        -0.4999 
     69 C69        32.7474   26.0918    5.7435 C.3       12 UNK        -0.0954 
     70 S70        31.6483   24.7335    5.2289 S.3       12 UNK        -0.2268 
     71 C71        32.5724   24.0051    3.8337 C.3       12 UNK         0.0203 
     72 H72        29.4359   15.9664    0.6706 H         1 UNK         0.0888 
     73 H73        31.0916   16.5521    0.4857 H         1 UNK         0.0888 
     74 H74        30.1746   16.9428    1.9416 H         1 UNK         0.0888 
     75 H75        29.3806   19.0549    1.9427 H         1 UNK         0.3017 
     76 H76        28.0898   20.1877   -0.3788 H         1 UNK         0.0873 
     77 H77        30.4750   21.6981    0.8493 H         1 UNK         0.0745 
     78 H78        30.6022   20.7800   -0.6089 H         1 UNK         0.0745 
     79 H79        28.4465   23.7794    0.9400 H         1 UNK         0.0705 
     80 H80        28.6191   24.9039   -0.3683 H         1 UNK         0.0705 
     81 H81        30.3098   23.3686    2.4991 H         1 UNK         0.1334 
     82 H82        33.7922   25.8513    2.1919 H         1 UNK         0.1417 
     83 H83        30.8351   25.8924   -0.9185 H         1 UNK         0.1562 
     84 H84        32.7604   27.2230   -1.1834 H         1 UNK         0.0748 
     85 H85        34.2006   26.6995   -0.3596 H         1 UNK         0.0748 
     86 H86        31.6695   29.8177    2.0457 H         1 UNK         0.0940 
     87 H87        31.5368   28.0988    2.1516 H         1 UNK         0.0940 
     88 H88        30.6438   28.2410   -0.3661 H         1 UNK         0.0703 
     89 H89        29.2132   28.5864    2.1601 H         1 UNK         0.3081 
     90 H90        26.9461   28.3613    2.2407 H         1 UNK         0.0719 
     91 H91        25.6405   26.6179    0.0886 H         1 UNK         0.0809 
     92 H92        24.8299   27.3862    1.4521 H         1 UNK         0.0809 
     93 H93        25.5248   28.3710    0.1746 H         1 UNK         0.0809 
     94 H94        26.3841   25.6354    2.2531 H         1 UNK         0.2990 
     95 H95        28.9387   24.4002    4.3030 H         1 UNK         0.0690 
     96 H96        27.1887   24.1344    6.0247 H         1 UNK         0.0788 
     97 H97        26.1704   25.3257    5.2153 H         1 UNK         0.0788 
     98 H98        27.7023   25.8103    5.9278 H         1 UNK         0.0788 
     99 H99        27.9083   22.7279    3.3455 H         1 UNK         0.2993 
    100 H100       25.7290   21.3347    3.1143 H         1 UNK         0.0949 
    101 H101       24.3127   22.6571    0.7420 H         1 UNK         0.0767 
    102 H102       24.1154   20.9819    1.2588 H         1 UNK         0.0767 
    103 H103       23.5884   22.2893    2.3019 H         1 UNK         0.0767 
    104 H104       26.4843   21.5806    0.3273 H         1 UNK         0.3013 
    105 H105       28.8906   30.6801    1.3751 H         1 UNK         0.3121 
    106 H106       27.8478   32.5261    0.8133 H         1 UNK         0.0774 
    107 H107       27.4781   33.2077   -1.5318 H         1 UNK         0.0815 
    108 H108       28.7051   32.0866   -2.0951 H         1 UNK         0.0815 
    109 H109       27.2318   31.4790   -1.3445 H         1 UNK         0.0815 
    110 H110       30.8940   32.5683   -1.0640 H         1 UNK         0.2987 
    111 H111       31.4695   35.3600   -0.6843 H         1 UNK         0.0949 
    112 H112       33.7324   34.7096   -1.5472 H         1 UNK         0.0806 
    113 H113       33.3159   33.0082   -1.3863 H         1 UNK         0.0806 
    114 H114       32.4536   34.0277   -2.5385 H         1 UNK         0.0806 
    115 H115       32.0287   32.5345    1.2750 H         1 UNK         0.3010 
    116 H116       33.1884   34.2090    3.4579 H         1 UNK         0.0829 
    117 H117       34.9500   32.6989    2.4862 H         1 UNK         0.0813 
    118 H118       34.5502   32.2623    4.1363 H         1 UNK         0.0813 
    119 H119       33.9212   31.3027    2.7991 H         1 UNK         0.0813 
    120 H120       30.3735   33.4573    2.6804 H         1 UNK         0.3038 
    121 H121       28.4564   32.7296    3.5084 H         1 UNK         0.0769 
    122 H122       28.0762   33.0249    5.9566 H         1 UNK         0.0811 
    123 H123       28.9765   34.3657    5.2812 H         1 UNK         0.0811 
    124 H124       29.8146   33.1491    6.2310 H         1 UNK         0.0811 
    125 H125       29.2668   31.1517    6.3895 H         1 UNK         0.3204 
    126 H126       28.7188   28.4917    5.2399 H         1 UNK         0.0748 
    127 H127       28.4931   27.8309    7.6315 H         1 UNK         0.0771 
    128 H128       28.8927   29.4675    8.1356 H         1 UNK         0.0771 
    129 H129       27.4198   29.1580    7.2179 H         1 UNK         0.0771 
    130 H130       30.5476   27.7352    4.3030 H         1 UNK         0.2980 
    131 H131       32.5943   27.0976    3.8669 H         1 UNK         0.0545 
    132 H132       32.6641   30.0853    5.2176 H         1 UNK         0.3459 
    133 H133       34.3941   30.2543    5.2415 H         1 UNK         0.3459 
    134 H134       32.5717   26.2942    6.8010 H         1 UNK         0.0616 
    135 H135       33.7731   25.7254    5.6803 H         1 UNK         0.0616 
    136 H136       33.6443   24.1611    3.9614 H         1 UNK         0.0634 
    137 H137       32.4230   22.9246    3.8494 H         1 UNK         0.0634 
@<TRIPOS>BOND
     1    1    2 1    
     2    1   72 1    
     3    1   73 1    
     4    1   74 1    
     5    2    3 2    
     6    2    4 am   BACKBONE|DICT|INTERRES
     7    4    5 1    
     8    4   75 1    
     9    5    6 1    
    10    5   35 1    
    11    5   76 1    
    12    6    7 1    
    13    6   77 1    
    14    6   78 1    
    15    7    8 1    
    16    8    9 1    
    17    8   79 1    
    18    8   80 1    
    19    9   10 ar   
    20    9   14 ar   
    21   10   11 ar   
    22   10   81 1    
    23   11   12 ar   
    24   11   71 1    
    25   12   13 ar   
    26   12   82 1    
    27   13   14 ar   
    28   13   15 1    
    29   14   83 1    
    30   15   16 1    
    31   15   84 1    
    32   15   85 1    
    33   16   17 1    
    34   17   18 1    
    35   17   86 1    
    36   17   87 1    
    37   18   19 1    
    38   18   37 1    
    39   18   88 1    
    40   19   20 am   BACKBONE|DICT|INTERRES
    41   19   89 1    
    42   20   21 2    
    43   20   22 1    
    44   22   23 1    
    45   22   24 1    
    46   22   90 1    
    47   23   91 1    
    48   23   92 1    
    49   23   93 1    
    50   24   25 am   BACKBONE|DICT|INTERRES
    51   24   94 1    
    52   25   26 2    
    53   25   27 1    
    54   27   28 1    
    55   27   29 1    
    56   27   95 1    
    57   28   96 1    
    58   28   97 1    
    59   28   98 1    
    60   29   30 am   BACKBONE|DICT|INTERRES
    61   29   99 1    
    62   30   31 2    
    63   30   32 1    
    64   32   33 1    
    65   32   34 1    
    66   32  100 1    
    67   33  101 1    
    68   33  102 1    
    69   33  103 1    
    70   34   35 am   BACKBONE|DICT|INTERRES
    71   34  104 1    
    72   35   36 2    
    73   37   38 2    
    74   37   39 am   BACKBONE|DICT|INTERRES
    75   39   40 1    
    76   39  105 1    
    77   40   41 1    
    78   40   42 1    
    79   40  106 1    
    80   41  107 1    
    81   41  108 1    
    82   41  109 1    
    83   42   43 2    
    84   42   44 am   BACKBONE|DICT|INTERRES
    85   44   45 1    
    86   44  110 1    
    87   45   46 1    
    88   45   47 1    
    89   45  111 1    
    90   46  112 1    
    91   46  113 1    
    92   46  114 1    
    93   47   48 2    
    94   47   49 am   BACKBONE|DICT|INTERRES
    95   49   50 1    
    96   49  115 1    
    97   50   51 1    
    98   50   52 1    
    99   50  116 1    
   100   51  117 1    
   101   51  118 1    
   102   51  119 1    
   103   52   53 2    
   104   52   54 am   BACKBONE|DICT|INTERRES
   105   54   55 1    
   106   54  120 1    
   107   55   56 1    
   108   55   57 1    
   109   55  121 1    
   110   56  122 1    
   111   56  123 1    
   112   56  124 1    
   113   57   58 2    
   114   57   59 am   BACKBONE|DICT|INTERRES
   115   59   60 1    
   116   59  125 1    
   117   60   61 1    
   118   60   62 1    
   119   60  126 1    
   120   61  127 1    
   121   61  128 1    
   122   61  129 1    
   123   62   63 2    
   124   62   64 am   BACKBONE|DICT|INTERRES
   125   64   65 1    
   126   64  130 1    
   127   65   66 1    
   128   65   69 1    
   129   65  131 1    
   130   66   67 am   BACKBONE|DICT|INTERRES
   131   66   68 2    
   132   67  132 1    
   133   67  133 1    
   134   69   70 1    
   135   69  134 1    
   136   69  135 1    
   137   70   71 1    
   138   71  136 1    
   139   71  137 1    
@<TRIPOS>SUBSTRUCTURE
     1 UNK         1 GROUP             0       ****    0 ROOT    
