@<TRIPOS>MOLECULE
3R136
137   139    1
SMALL
USER_CHARGES


@<TRIPOS>ATOM
      1 CA         28.6876   29.9522   -4.0150 C.3       0 UNK        -0.1979 
      2 C          28.4563   29.0710   -2.7967 C.2       0 UNK         0.4864 
      3 O          27.3438   29.0337   -2.2744 O.2       0 UNK        -0.5359 
      4 N          29.4996   28.3592   -2.3483 N.am      1 UNK        -0.4318 
      5 CA         29.4834   27.4886   -1.1643 C.3       1 UNK         0.0824 
      6 C6         30.9032   27.3888   -0.5452 C.3       12 UNK        -0.0944 
      7 S7         30.8618   27.1502    1.2606 S.3       12 UNK        -0.2672 
      8 C8         31.6046   25.4935    1.3817 C.3       12 UNK         0.0333 
      9 C9         31.3777   24.8924    2.7572 C.ar      12 UNK        -0.0807 
     10 C10        32.1864   25.2670    3.8335 C.ar      12 UNK        -0.0894 
     11 C11        31.9670   24.7267    5.1038 C.ar      12 UNK        -0.0804 
     12 C12        30.9218   23.8180    5.2955 C.ar      12 UNK        -0.0824 
     13 C13        30.1097   23.4307    4.2242 C.ar      12 UNK        -0.0762 
     14 C14        30.3560   23.9588    2.9529 C.ar      12 UNK        -0.0782 
     15 C15        28.9705   22.4404    4.4504 C.3       12 UNK         0.0230 
     16 S16        27.3458   23.0512    3.8797 S.3       12 UNK        -0.2608 
     17 C17        27.2606   24.7050    4.6461 C.3       12 UNK        -0.0989 
     18 CA         27.3909   25.8150    3.5749 C.3       5 UNK         0.0716 
     19 N          26.2033   25.8901    2.7211 N.am      5 UNK        -0.4135 
     20 C          26.0681   26.6998    1.6649 C.2       4 UNK         0.5031 
     21 O          26.9426   27.4796    1.2872 O.2       4 UNK        -0.5229 
     22 CA         24.7505   26.5820    0.8804 C.3       4 UNK         0.0329 
     23 CB         24.4101   27.8697    0.1090 C.3       4 UNK        -0.2001 
     24 N          24.8388   25.4778   -0.0703 N.am      4 UNK        -0.4303 
     25 C          24.7109   24.1794    0.2226 C.2       3 UNK         0.5044 
     26 O          24.3998   23.7650    1.3401 O.2       3 UNK        -0.5152 
     27 CA         24.9868   23.1659   -0.9064 C.3       3 UNK         0.0319 
     28 CB         23.7473   22.9768   -1.8030 C.3       3 UNK        -0.2001 
     29 N          26.1971   23.4475   -1.6971 N.am      3 UNK        -0.4354 
     30 C          26.4418   24.4759   -2.5221 C.2       2 UNK         0.4964 
     31 O          25.6256   25.3597   -2.7919 O.2       2 UNK        -0.5047 
     32 CA         27.8575   24.5588   -3.1160 C.3       2 UNK         0.0288 
     33 CB         27.8190   24.4917   -4.6520 C.3       2 UNK        -0.2113 
     34 N          28.5184   25.7973   -2.7004 N.am      2 UNK        -0.4145 
     35 C          28.8646   26.0933   -1.4376 C.2       1 UNK         0.5006 
     36 O          28.7287   25.2936   -0.5099 O.2       1 UNK        -0.5103 
     37 C          27.7296   27.1710    4.2226 C.2       5 UNK         0.5055 
     38 O          26.8438   27.8174    4.7870 O.2       5 UNK        -0.5220 
     39 N          29.0114   27.5508    4.1257 N.am      6 UNK        -0.4450 
     40 CA         29.6267   28.7864    4.6236 C.3       6 UNK         0.0367 
     41 CB         29.4811   28.8993    6.1563 C.3       6 UNK        -0.1929 
     42 C          29.1624   30.0711    3.9038 C.2       6 UNK         0.5070 
     43 O          29.4104   31.1641    4.4153 O.2       6 UNK        -0.5237 
     44 N          28.5066   29.9498    2.7386 N.am      7 UNK        -0.4739 
     45 CA         27.9675   31.0893    1.9848 C.3       7 UNK         0.0276 
     46 CB         26.8193   30.6129    1.0839 C.3       7 UNK        -0.1927 
     47 C          29.0142   31.8537    1.1553 C.2       7 UNK         0.5013 
     48 O          28.7006   32.9446    0.6755 O.2       7 UNK        -0.5193 
     49 N          30.2185   31.2915    0.9887 N.am      8 UNK        -0.4253 
     50 CA         31.3181   31.9213    0.2548 C.3       8 UNK         0.0242 
     51 CB         31.2612   31.5553   -1.2396 C.3       8 UNK        -0.2000 
     52 C          32.6778   31.5875    0.8765 C.2       8 UNK         0.4948 
     53 O          33.4595   32.5065    1.1260 O.2       8 UNK        -0.5275 
     54 N          32.9458   30.2976    1.1260 N.am      9 UNK        -0.4246 
     55 CA         34.1682   29.8461    1.7943 C.3       9 UNK         0.0261 
     56 CB         34.4142   28.3631    1.4735 C.3       9 UNK        -0.1959 
     57 C          34.0573   30.0521    3.3120 C.2       9 UNK         0.5033 
     58 O          32.9871   29.8203    3.8782 O.2       9 UNK        -0.5390 
     59 N          35.1670   30.4491    3.9443 N.am      10 UNK        -0.4215 
     60 CA         35.2846   30.5467    5.3982 C.3       10 UNK         0.0240 
     61 CB         36.3802   31.5647    5.7569 C.3       10 UNK        -0.1982 
     62 C          35.6132   29.1641    5.9782 C.2       10 UNK         0.4970 
     63 O          36.5348   28.5086    5.4858 O.2       10 UNK        -0.4916 
     64 N          34.8707   28.7576    7.0124 N.am      11 UNK        -0.4279 
     65 CA         35.0442   27.4668    7.7002 C.3       11 UNK         0.1003 
     66 C          36.1391   27.4742    8.8067 C.2       11 UNK         0.5709 
     67 N          36.7437   28.6082    9.1420 N.am      11 UNK        -0.7358 
     68 O          36.4568   26.4259    9.3635 O.2       11 UNK        -0.4999 
     69 C69        33.6974   26.9141    8.2385 C.3       12 UNK        -0.0954 
     70 S70        32.4326   26.7397    6.9361 S.3       12 UNK        -0.2268 
     71 C71        32.8726   25.1115    6.2625 C.3       12 UNK         0.0203 
     72 H72        28.0275   29.6503   -4.8278 H         1 UNK         0.0888 
     73 H73        28.4724   30.9918   -3.7694 H         1 UNK         0.0888 
     74 H74        29.7156   29.8953   -4.3725 H         1 UNK         0.0888 
     75 H75        30.3811   28.4138   -2.8392 H         1 UNK         0.3017 
     76 H76        28.8320   27.9690   -0.4315 H         1 UNK         0.0873 
     77 H77        31.4580   28.3111   -0.7113 H         1 UNK         0.0745 
     78 H78        31.4962   26.6101   -1.0291 H         1 UNK         0.0745 
     79 H79        31.1775   24.8432    0.6168 H         1 UNK         0.0705 
     80 H80        32.6731   25.5557    1.1709 H         1 UNK         0.0705 
     81 H81        32.9831   25.9835    3.6855 H         1 UNK         0.1334 
     82 H82        30.7458   23.4079    6.2807 H         1 UNK         0.1417 
     83 H83        29.7298   23.6649    2.1204 H         1 UNK         0.1562 
     84 H84        28.8874   22.1838    5.5077 H         1 UNK         0.0748 
     85 H85        29.2006   21.5112    3.9276 H         1 UNK         0.0748 
     86 H86        28.0422   24.7896    5.4038 H         1 UNK         0.0940 
     87 H87        26.3168   24.7990    5.1865 H         1 UNK         0.0940 
     88 H88        28.2154   25.5634    2.9067 H         1 UNK         0.0703 
     89 H89        25.4636   25.2310    2.9208 H         1 UNK         0.3081 
     90 H90        23.9402   26.3874    1.5863 H         1 UNK         0.0719 
     91 H91        24.3034   28.7136    0.7905 H         1 UNK         0.0809 
     92 H92        25.1856   28.1272   -0.6145 H         1 UNK         0.0809 
     93 H93        23.4691   27.7708   -0.4321 H         1 UNK         0.0809 
     94 H94        25.1138   25.7110   -1.0210 H         1 UNK         0.2990 
     95 H95        25.1790   22.2091   -0.4180 H         1 UNK         0.0690 
     96 H96        23.9187   22.2117   -2.5601 H         1 UNK         0.0788 
     97 H97        23.4649   23.8975   -2.3143 H         1 UNK         0.0788 
     98 H98        22.8869   22.6607   -1.2117 H         1 UNK         0.0788 
     99 H99        26.9638   22.8134   -1.5174 H         1 UNK         0.2993 
    100 H100       28.4520   23.7182   -2.7513 H         1 UNK         0.0949 
    101 H101       27.3399   23.5715   -4.9892 H         1 UNK         0.0767 
    102 H102       27.2603   25.3254   -5.0799 H         1 UNK         0.0767 
    103 H103       28.8234   24.5076   -5.0757 H         1 UNK         0.0767 
    104 H104       28.6278   26.5130   -3.4027 H         1 UNK         0.3013 
    105 H105       29.6428   26.9480    3.6122 H         1 UNK         0.3121 
    106 H106       30.6898   28.6844    4.4046 H         1 UNK         0.0774 
    107 H107       30.1413   29.6716    6.5525 H         1 UNK         0.0815 
    108 H108       28.4637   29.1609    6.4484 H         1 UNK         0.0815 
    109 H109       29.7410   27.9654    6.6531 H         1 UNK         0.0815 
    110 H110       28.3032   29.0250    2.3763 H         1 UNK         0.2987 
    111 H111       27.5490   31.8036    2.6975 H         1 UNK         0.0949 
    112 H112       26.3491   31.4508    0.5676 H         1 UNK         0.0806 
    113 H113       27.1689   29.9181    0.3198 H         1 UNK         0.0806 
    114 H114       26.0441   30.1160    1.6660 H         1 UNK         0.0806 
    115 H115       30.4080   30.4249    1.4710 H         1 UNK         0.3010 
    116 H116       31.2139   33.0064    0.3315 H         1 UNK         0.0829 
    117 H117       30.3282   31.8905   -1.6930 H         1 UNK         0.0813 
    118 H118       32.0756   32.0308   -1.7877 H         1 UNK         0.0813 
    119 H119       31.3430   30.4826   -1.4016 H         1 UNK         0.0813 
    120 H120       32.2587   29.5878    0.9235 H         1 UNK         0.3038 
    121 H121       35.0127   30.4234    1.4107 H         1 UNK         0.0769 
    122 H122       33.6566   27.7239    1.9254 H         1 UNK         0.0811 
    123 H123       35.3800   28.0378    1.8622 H         1 UNK         0.0811 
    124 H124       34.4169   28.1784    0.3992 H         1 UNK         0.0811 
    125 H125       36.0189   30.5672    3.4147 H         1 UNK         0.3204 
    126 H126       34.3388   30.9020    5.8142 H         1 UNK         0.0748 
    127 H127       36.4725   31.6738    6.8383 H         1 UNK         0.0771 
    128 H128       37.3567   31.2628    5.3753 H         1 UNK         0.0771 
    129 H129       36.1523   32.5507    5.3513 H         1 UNK         0.0771 
    130 H130       34.1293   29.3484    7.3585 H         1 UNK         0.2980 
    131 H131       35.4028   26.7457    6.9636 H         1 UNK         0.0545 
    132 H132       37.4548   28.5951    9.8562 H         1 UNK         0.3459 
    133 H133       36.4962   29.4736    8.6911 H         1 UNK         0.3459 
    134 H134       33.2985   27.5762    9.0088 H         1 UNK         0.0616 
    135 H135       33.8367   25.9427    8.7167 H         1 UNK         0.0616 
    136 H136       32.8165   24.3651    7.0564 H         1 UNK         0.0634 
    137 H137       33.9091   25.1262    5.9229 H         1 UNK         0.0634 
@<TRIPOS>BOND
     1    1    2 1    
     2    1   72 1    
     3    1   73 1    
     4    1   74 1    
     5    2    3 2    
     6    2    4 am   BACKBONE|DICT|INTERRES
     7    4    5 1    
     8    4   75 1    
     9    5    6 1    
    10    5   35 1    
    11    5   76 1    
    12    6    7 1    
    13    6   77 1    
    14    6   78 1    
    15    7    8 1    
    16    8    9 1    
    17    8   79 1    
    18    8   80 1    
    19    9   10 ar   
    20    9   14 ar   
    21   10   11 ar   
    22   10   81 1    
    23   11   12 ar   
    24   11   71 1    
    25   12   13 ar   
    26   12   82 1    
    27   13   14 ar   
    28   13   15 1    
    29   14   83 1    
    30   15   16 1    
    31   15   84 1    
    32   15   85 1    
    33   16   17 1    
    34   17   18 1    
    35   17   86 1    
    36   17   87 1    
    37   18   19 1    
    38   18   37 1    
    39   18   88 1    
    40   19   20 am   BACKBONE|DICT|INTERRES
    41   19   89 1    
    42   20   21 2    
    43   20   22 1    
    44   22   23 1    
    45   22   24 1    
    46   22   90 1    
    47   23   91 1    
    48   23   92 1    
    49   23   93 1    
    50   24   25 am   BACKBONE|DICT|INTERRES
    51   24   94 1    
    52   25   26 2    
    53   25   27 1    
    54   27   28 1    
    55   27   29 1    
    56   27   95 1    
    57   28   96 1    
    58   28   97 1    
    59   28   98 1    
    60   29   30 am   BACKBONE|DICT|INTERRES
    61   29   99 1    
    62   30   31 2    
    63   30   32 1    
    64   32   33 1    
    65   32   34 1    
    66   32  100 1    
    67   33  101 1    
    68   33  102 1    
    69   33  103 1    
    70   34   35 am   BACKBONE|DICT|INTERRES
    71   34  104 1    
    72   35   36 2    
    73   37   38 2    
    74   37   39 am   BACKBONE|DICT|INTERRES
    75   39   40 1    
    76   39  105 1    
    77   40   41 1    
    78   40   42 1    
    79   40  106 1    
    80   41  107 1    
    81   41  108 1    
    82   41  109 1    
    83   42   43 2    
    84   42   44 am   BACKBONE|DICT|INTERRES
    85   44   45 1    
    86   44  110 1    
    87   45   46 1    
    88   45   47 1    
    89   45  111 1    
    90   46  112 1    
    91   46  113 1    
    92   46  114 1    
    93   47   48 2    
    94   47   49 am   BACKBONE|DICT|INTERRES
    95   49   50 1    
    96   49  115 1    
    97   50   51 1    
    98   50   52 1    
    99   50  116 1    
   100   51  117 1    
   101   51  118 1    
   102   51  119 1    
   103   52   53 2    
   104   52   54 am   BACKBONE|DICT|INTERRES
   105   54   55 1    
   106   54  120 1    
   107   55   56 1    
   108   55   57 1    
   109   55  121 1    
   110   56  122 1    
   111   56  123 1    
   112   56  124 1    
   113   57   58 2    
   114   57   59 am   BACKBONE|DICT|INTERRES
   115   59   60 1    
   116   59  125 1    
   117   60   61 1    
   118   60   62 1    
   119   60  126 1    
   120   61  127 1    
   121   61  128 1    
   122   61  129 1    
   123   62   63 2    
   124   62   64 am   BACKBONE|DICT|INTERRES
   125   64   65 1    
   126   64  130 1    
   127   65   66 1    
   128   65   69 1    
   129   65  131 1    
   130   66   67 am   BACKBONE|DICT|INTERRES
   131   66   68 2    
   132   67  132 1    
   133   67  133 1    
   134   69   70 1    
   135   69  134 1    
   136   69  135 1    
   137   70   71 1    
   138   71  136 1    
   139   71  137 1    
@<TRIPOS>SUBSTRUCTURE
     1 UNK         1 GROUP             0       ****    0 ROOT    
