@<TRIPOS>MOLECULE
3R136
137   139    1
SMALL
USER_CHARGES


@<TRIPOS>ATOM
      1 CA         30.5152   27.3858    3.6323 C.3       0 UNK        -0.1979 
      2 C          29.2621   26.5323    3.5456 C.2       0 UNK         0.4864 
      3 O          28.2852   26.7971    4.2473 O.2       0 UNK        -0.5359 
      4 N          29.2930   25.4893    2.7068 N.am      1 UNK        -0.4318 
      5 CA         28.1888   24.5440    2.5246 C.3       1 UNK         0.0824 
      6 C6         28.6274   23.2481    1.7991 C.3       12 UNK        -0.0944 
      7 S7         29.8996   22.3291    2.7342 S.3       12 UNK        -0.2672 
      8 C8         31.3299   22.3547    1.6040 C.3       12 UNK         0.0333 
      9 C9         31.9167   23.7510    1.4559 C.ar      12 UNK        -0.0807 
     10 C10        32.7656   24.2690    2.4402 C.ar      12 UNK        -0.0894 
     11 C11        33.2879   25.5610    2.3182 C.ar      12 UNK        -0.0804 
     12 C12        32.9547   26.3329    1.2012 C.ar      12 UNK        -0.0824 
     13 C13        32.1117   25.8232    0.2109 C.ar      12 UNK        -0.0762 
     14 C14        31.6049   24.5279    0.3368 C.ar      12 UNK        -0.0782 
     15 C15        31.7194   26.6882   -0.9731 C.3       12 UNK         0.0230 
     16 S16        30.4648   27.8948   -0.4594 S.3       12 UNK        -0.2608 
     17 C17        29.8925   28.5595   -2.0643 C.3       12 UNK        -0.0989 
     18 CA         28.3986   28.2537   -2.3484 C.3       5 UNK         0.0716 
     19 N          28.1361   26.8154   -2.3023 N.am      5 UNK        -0.4135 
     20 C          27.0640   26.1947   -2.8054 C.2       4 UNK         0.5031 
     21 O          26.1163   26.7792   -3.3320 O.2       4 UNK        -0.5229 
     22 CA         27.0581   24.6594   -2.7396 C.3       4 UNK         0.0329 
     23 CB         28.4203   24.0373   -2.3645 C.3       4 UNK        -0.2001 
     24 N          26.0649   24.2394   -1.7589 N.am      4 UNK        -0.4303 
     25 C          24.9558   23.5365   -2.0246 C.2       3 UNK         0.5044 
     26 O          24.6440   23.1469   -3.1511 O.2       3 UNK        -0.5152 
     27 CA         24.0414   23.1744   -0.8367 C.3       3 UNK         0.0319 
     28 CB         24.1169   21.6668   -0.5413 C.3       3 UNK        -0.2001 
     29 N          24.3566   23.9090    0.3908 N.am      3 UNK        -0.4354 
     30 C          24.0652   25.1986    0.6078 C.2       2 UNK         0.4964 
     31 O          23.4301   25.9007   -0.1783 O.2       2 UNK        -0.5047 
     32 CA         24.5921   25.8153    1.9139 C.3       2 UNK         0.0288 
     33 CB         23.5166   25.7533    3.0102 C.3       2 UNK        -0.2113 
     34 N          25.8295   25.2029    2.4137 N.am      2 UNK        -0.4145 
     35 C          27.0170   25.2229    1.7896 C.2       1 UNK         0.5006 
     36 O          27.2043   25.7278    0.6779 O.2       1 UNK        -0.5103 
     37 C          27.4843   29.0819   -1.4222 C.2       5 UNK         0.5055 
     38 O          27.1763   30.2253   -1.7629 O.2       5 UNK        -0.5220 
     39 N          27.1189   28.5181   -0.2582 N.am      6 UNK        -0.4450 
     40 CA         26.4606   29.1900    0.8710 C.3       6 UNK         0.0367 
     41 CB         25.0038   29.5589    0.5179 C.3       6 UNK        -0.1929 
     42 C          27.2716   30.3836    1.4250 C.2       6 UNK         0.5070 
     43 O          26.6903   31.3946    1.8245 O.2       6 UNK        -0.5237 
     44 N          28.6050   30.2455    1.4265 N.am      7 UNK        -0.4739 
     45 CA         29.5619   31.2223    1.9531 C.3       7 UNK         0.0276 
     46 CB         30.9308   30.9678    1.2920 C.3       7 UNK        -0.1927 
     47 C          29.6587   31.1750    3.4919 C.2       7 UNK         0.5013 
     48 O          28.8957   30.4625    4.1485 O.2       7 UNK        -0.5193 
     49 N          30.6109   31.9358    4.0475 N.am      8 UNK        -0.4253 
     50 CA         30.9576   31.9151    5.4692 C.3       8 UNK         0.0242 
     51 CB         31.8811   33.1039    5.7825 C.3       8 UNK        -0.2000 
     52 C          31.6431   30.5942    5.8562 C.2       8 UNK         0.4948 
     53 O          32.4792   30.0944    5.0983 O.2       8 UNK        -0.5275 
     54 N          31.3252   30.0884    7.0560 N.am      9 UNK        -0.4246 
     55 CA         31.8445   28.8326    7.6170 C.3       9 UNK         0.0261 
     56 CB         31.1106   28.5281    8.9333 C.3       9 UNK        -0.1959 
     57 C          33.3708   28.8011    7.8315 C.2       9 UNK         0.5033 
     58 O          33.9401   27.7141    7.9357 O.2       9 UNK        -0.5390 
     59 N          34.0072   29.9807    7.8676 N.am      10 UNK        -0.4215 
     60 CA         35.4605   30.1620    7.8830 C.3       10 UNK         0.0240 
     61 CB         35.7765   31.6403    8.1649 C.3       10 UNK        -0.1982 
     62 C          36.1589   29.7007    6.5873 C.2       10 UNK         0.4970 
     63 O          37.3631   29.4459    6.6265 O.2       10 UNK        -0.4916 
     64 N          35.4094   29.5967    5.4783 N.am      11 UNK        -0.4279 
     65 CA         35.8744   29.1155    4.1674 C.3       11 UNK         0.1003 
     66 C          36.8510   30.0750    3.4197 C.2       11 UNK         0.5709 
     67 N          36.9559   31.3405    3.8088 N.am      11 UNK        -0.7358 
     68 O          37.5037   29.6829    2.4554 O.2       11 UNK        -0.4999 
     69 C69        36.3656   27.6345    4.2279 C.3       12 UNK        -0.0954 
     70 S70        35.8004   26.6488    2.8042 S.3       12 UNK        -0.2268 
     71 C71        34.1611   26.1503    3.4167 C.3       12 UNK         0.0203 
     72 H72        30.3411   28.2663    4.2479 H         1 UNK         0.0888 
     73 H73        31.3210   26.8161    4.0912 H         1 UNK         0.0888 
     74 H74        30.8324   27.7177    2.6447 H         1 UNK         0.0888 
     75 H75        30.1220   25.3106    2.1559 H         1 UNK         0.3017 
     76 H76        27.8442   24.2569    3.5208 H         1 UNK         0.0873 
     77 H77        28.9870   23.4655    0.7941 H         1 UNK         0.0745 
     78 H78        27.7747   22.5784    1.6716 H         1 UNK         0.0745 
     79 H79        31.0343   21.9513    0.6341 H         1 UNK         0.0705 
     80 H80        32.0950   21.6804    1.9916 H         1 UNK         0.0705 
     81 H81        33.0025   23.6700    3.3092 H         1 UNK         0.1334 
     82 H82        33.3368   27.3410    1.1121 H         1 UNK         0.1417 
     83 H83        30.9558   24.1289   -0.4299 H         1 UNK         0.1562 
     84 H84        31.3333   26.0728   -1.7871 H         1 UNK         0.0748 
     85 H85        32.5939   27.2121   -1.3622 H         1 UNK         0.0748 
     86 H86        30.5075   28.1522   -2.8683 H         1 UNK         0.0940 
     87 H87        30.0766   29.6358   -2.0807 H         1 UNK         0.0940 
     88 H88        28.1860   28.5848   -3.3674 H         1 UNK         0.0703 
     89 H89        28.8425   26.2579   -1.8470 H         1 UNK         0.3081 
     90 H90        26.7927   24.3051   -3.7378 H         1 UNK         0.0719 
     91 H91        28.3677   22.9485   -2.3841 H         1 UNK         0.0809 
     92 H92        29.1986   24.3298   -3.0710 H         1 UNK         0.0809 
     93 H93        28.7419   24.3298   -1.3657 H         1 UNK         0.0809 
     94 H94        26.2107   24.5819   -0.8167 H         1 UNK         0.2990 
     95 H95        23.0171   23.4146   -1.1300 H         1 UNK         0.0690 
     96 H96        23.8478   21.0817   -1.4220 H         1 UNK         0.0788 
     97 H97        23.4285   21.3827    0.2549 H         1 UNK         0.0788 
     98 H98        25.1213   21.3630   -0.2435 H         1 UNK         0.0788 
     99 H99        24.8634   23.4054    1.1040 H         1 UNK         0.2993 
    100 H100       24.8006   26.8643    1.7075 H         1 UNK         0.0949 
    101 H101       23.2775   24.7252    3.2853 H         1 UNK         0.0767 
    102 H102       23.8372   26.2775    3.9108 H         1 UNK         0.0767 
    103 H103       22.5911   26.2252    2.6764 H         1 UNK         0.0767 
    104 H104       25.7753   24.7791    3.3291 H         1 UNK         0.3013 
    105 H105       27.3949   27.5548   -0.0857 H         1 UNK         0.3121 
    106 H106       26.4360   28.4612    1.6815 H         1 UNK         0.0774 
    107 H107       24.9582   30.3615   -0.2187 H         1 UNK         0.0815 
    108 H108       24.4624   29.8985    1.4016 H         1 UNK         0.0815 
    109 H109       24.4620   28.7044    0.1126 H         1 UNK         0.0815 
    110 H110       28.9942   29.3799    1.0800 H         1 UNK         0.2987 
    111 H111       29.2225   32.2226    1.6750 H         1 UNK         0.0949 
    112 H112       31.3676   30.0232    1.6192 H         1 UNK         0.0806 
    113 H113       30.8466   30.9386    0.2054 H         1 UNK         0.0806 
    114 H114       31.6462   31.7558    1.5283 H         1 UNK         0.0806 
    115 H115       31.2182   32.4710    3.4449 H         1 UNK         0.3010 
    116 H116       30.0368   32.0244    6.0467 H         1 UNK         0.0829 
    117 H117       31.4065   34.0525    5.5304 H         1 UNK         0.0813 
    118 H118       32.1273   33.1407    6.8445 H         1 UNK         0.0813 
    119 H119       32.8211   33.0424    5.2319 H         1 UNK         0.0813 
    120 H120       30.6417   30.5764    7.6180 H         1 UNK         0.3038 
    121 H121       31.6100   28.0389    6.9042 H         1 UNK         0.0769 
    122 H122       31.2823   29.3038    9.6806 H         1 UNK         0.0811 
    123 H123       31.4503   27.5835    9.3610 H         1 UNK         0.0811 
    124 H124       30.0350   28.4407    8.7783 H         1 UNK         0.0811 
    125 H125       33.4469   30.8167    7.7942 H         1 UNK         0.3204 
    126 H126       35.8643   29.5611    8.7006 H         1 UNK         0.0748 
    127 H127       36.8536   31.8082    8.2098 H         1 UNK         0.0771 
    128 H128       35.3766   32.2953    7.3896 H         1 UNK         0.0771 
    129 H129       35.3623   31.9595    9.1217 H         1 UNK         0.0771 
    130 H130       34.4232   29.8354    5.5195 H         1 UNK         0.2980 
    131 H131       34.9685   29.1438    3.5610 H         1 UNK         0.0545 
    132 H132       36.4204   31.6808    4.5905 H         1 UNK         0.3459 
    133 H133       37.5817   31.9577    3.3158 H         1 UNK         0.3459 
    134 H134       37.4538   27.5795    4.2907 H         1 UNK         0.0616 
    135 H135       36.0017   27.1395    5.1301 H         1 UNK         0.0616 
    136 H136       33.6575   27.0225    3.8351 H         1 UNK         0.0634 
    137 H137       34.2898   25.4421    4.2367 H         1 UNK         0.0634 
@<TRIPOS>BOND
     1    1    2 1    
     2    1   72 1    
     3    1   73 1    
     4    1   74 1    
     5    2    3 2    
     6    2    4 am   BACKBONE|DICT|INTERRES
     7    4    5 1    
     8    4   75 1    
     9    5    6 1    
    10    5   35 1    
    11    5   76 1    
    12    6    7 1    
    13    6   77 1    
    14    6   78 1    
    15    7    8 1    
    16    8    9 1    
    17    8   79 1    
    18    8   80 1    
    19    9   10 ar   
    20    9   14 ar   
    21   10   11 ar   
    22   10   81 1    
    23   11   12 ar   
    24   11   71 1    
    25   12   13 ar   
    26   12   82 1    
    27   13   14 ar   
    28   13   15 1    
    29   14   83 1    
    30   15   16 1    
    31   15   84 1    
    32   15   85 1    
    33   16   17 1    
    34   17   18 1    
    35   17   86 1    
    36   17   87 1    
    37   18   19 1    
    38   18   37 1    
    39   18   88 1    
    40   19   20 am   BACKBONE|DICT|INTERRES
    41   19   89 1    
    42   20   21 2    
    43   20   22 1    
    44   22   23 1    
    45   22   24 1    
    46   22   90 1    
    47   23   91 1    
    48   23   92 1    
    49   23   93 1    
    50   24   25 am   BACKBONE|DICT|INTERRES
    51   24   94 1    
    52   25   26 2    
    53   25   27 1    
    54   27   28 1    
    55   27   29 1    
    56   27   95 1    
    57   28   96 1    
    58   28   97 1    
    59   28   98 1    
    60   29   30 am   BACKBONE|DICT|INTERRES
    61   29   99 1    
    62   30   31 2    
    63   30   32 1    
    64   32   33 1    
    65   32   34 1    
    66   32  100 1    
    67   33  101 1    
    68   33  102 1    
    69   33  103 1    
    70   34   35 am   BACKBONE|DICT|INTERRES
    71   34  104 1    
    72   35   36 2    
    73   37   38 2    
    74   37   39 am   BACKBONE|DICT|INTERRES
    75   39   40 1    
    76   39  105 1    
    77   40   41 1    
    78   40   42 1    
    79   40  106 1    
    80   41  107 1    
    81   41  108 1    
    82   41  109 1    
    83   42   43 2    
    84   42   44 am   BACKBONE|DICT|INTERRES
    85   44   45 1    
    86   44  110 1    
    87   45   46 1    
    88   45   47 1    
    89   45  111 1    
    90   46  112 1    
    91   46  113 1    
    92   46  114 1    
    93   47   48 2    
    94   47   49 am   BACKBONE|DICT|INTERRES
    95   49   50 1    
    96   49  115 1    
    97   50   51 1    
    98   50   52 1    
    99   50  116 1    
   100   51  117 1    
   101   51  118 1    
   102   51  119 1    
   103   52   53 2    
   104   52   54 am   BACKBONE|DICT|INTERRES
   105   54   55 1    
   106   54  120 1    
   107   55   56 1    
   108   55   57 1    
   109   55  121 1    
   110   56  122 1    
   111   56  123 1    
   112   56  124 1    
   113   57   58 2    
   114   57   59 am   BACKBONE|DICT|INTERRES
   115   59   60 1    
   116   59  125 1    
   117   60   61 1    
   118   60   62 1    
   119   60  126 1    
   120   61  127 1    
   121   61  128 1    
   122   61  129 1    
   123   62   63 2    
   124   62   64 am   BACKBONE|DICT|INTERRES
   125   64   65 1    
   126   64  130 1    
   127   65   66 1    
   128   65   69 1    
   129   65  131 1    
   130   66   67 am   BACKBONE|DICT|INTERRES
   131   66   68 2    
   132   67  132 1    
   133   67  133 1    
   134   69   70 1    
   135   69  134 1    
   136   69  135 1    
   137   70   71 1    
   138   71  136 1    
   139   71  137 1    
@<TRIPOS>SUBSTRUCTURE
     1 UNK         1 GROUP             0       ****    0 ROOT    
