@<TRIPOS>MOLECULE
3R136
137   139    1
SMALL
USER_CHARGES


@<TRIPOS>ATOM
      1 CA         29.3441   24.6981    5.2471 C.3       0 UNK        -0.1979 
      2 C          29.4612   25.3527    3.8797 C.2       0 UNK         0.4864 
      3 O          28.5896   25.1581    3.0312 O.2       0 UNK        -0.5359 
      4 N          30.5082   26.1611    3.6712 N.am      1 UNK        -0.4318 
      5 CA         30.7897   26.8912    2.4283 C.3       1 UNK         0.0824 
      6 C6         32.2021   27.5316    2.4785 C.3       12 UNK        -0.0944 
      7 S7         32.9188   27.9254    0.8452 S.3       12 UNK        -0.2672 
      8 C8         34.0811   26.5418    0.5839 C.3       12 UNK         0.0333 
      9 C9         33.3546   25.2103    0.6697 C.ar      12 UNK        -0.0807 
     10 C10        33.5764   24.3514    1.7469 C.ar      12 UNK        -0.0894 
     11 C11        32.7836   23.2107    1.9256 C.ar      12 UNK        -0.0804 
     12 C12        31.7875   22.9308    0.9818 C.ar      12 UNK        -0.0824 
     13 C13        31.5798   23.7591   -0.1281 C.ar      12 UNK        -0.0762 
     14 C14        32.3924   24.8869   -0.2860 C.ar      12 UNK        -0.0782 
     15 C15        30.4460   23.4099   -1.0957 C.3       12 UNK         0.0230 
     16 S16        30.2650   24.4723   -2.5744 S.3       12 UNK        -0.2608 
     17 C17        29.6283   26.0506   -1.9037 C.3       12 UNK        -0.0989 
     18 CA         28.0795   26.0921   -1.8997 C.3       5 UNK         0.0716 
     19 N          27.5380   25.4151   -0.7158 N.am      5 UNK        -0.4135 
     20 C          26.4445   24.6432   -0.7194 C.2       4 UNK         0.5031 
     21 O          25.7515   24.4283   -1.7145 O.2       4 UNK        -0.5229 
     22 CA         26.0577   24.0028    0.6202 C.3       4 UNK         0.0329 
     23 CB         26.9524   22.7931    0.9387 C.3       4 UNK        -0.2001 
     24 N          26.1182   24.9549    1.7288 N.am      4 UNK        -0.4303 
     25 C          25.1489   25.8315    2.0216 C.2       3 UNK         0.5044 
     26 O          24.1349   25.9886    1.3415 O.2       3 UNK        -0.5152 
     27 CA         25.3363   26.6614    3.2965 C.3       3 UNK         0.0319 
     28 CB         25.3499   25.7622    4.5457 C.3       3 UNK        -0.2001 
     29 N          26.5718   27.4429    3.2413 N.am      3 UNK        -0.4354 
     30 C          26.6208   28.7563    2.9774 C.2       2 UNK         0.4964 
     31 O          25.6280   29.4300    2.7021 O.2       2 UNK        -0.5047 
     32 CA         27.9856   29.4642    3.0569 C.3       2 UNK         0.0288 
     33 CB         28.0186   30.4156    4.2649 C.3       2 UNK        -0.2113 
     34 N          29.1260   28.5505    3.1412 N.am      2 UNK        -0.4145 
     35 C          29.6786   27.9135    2.0990 C.2       1 UNK         0.5006 
     36 O          29.2867   28.0449    0.9384 O.2       1 UNK        -0.5103 
     37 C          27.5408   27.5327   -2.0432 C.2       5 UNK         0.5055 
     38 O          27.6843   28.1088   -3.1228 O.2       5 UNK        -0.5220 
     39 N          26.9239   28.0813   -0.9834 N.am      6 UNK        -0.4450 
     40 CA         26.3327   29.4243   -0.8940 C.3       6 UNK         0.0367 
     41 CB         25.0906   29.5336   -1.8043 C.3       6 UNK        -0.1929 
     42 C          27.3469   30.5673   -1.1185 C.2       6 UNK         0.5070 
     43 O          26.9920   31.5967   -1.6965 O.2       6 UNK        -0.5237 
     44 N          28.5903   30.3636   -0.6660 N.am      7 UNK        -0.4739 
     45 CA         29.6980   31.3129   -0.7802 C.3       7 UNK         0.0276 
     46 CB         30.9434   30.5396   -1.2554 C.3       7 UNK        -0.1927 
     47 C          29.9068   32.0697    0.5484 C.2       7 UNK         0.5013 
     48 O          28.9319   32.3754    1.2393 O.2       7 UNK        -0.5193 
     49 N          31.1671   32.3891    0.8729 N.am      8 UNK        -0.4253 
     50 CA         31.5858   33.0103    2.1333 C.3       8 UNK         0.0242 
     51 CB         33.0065   33.5727    1.9539 C.3       8 UNK        -0.2000 
     52 C          31.5475   32.0084    3.3012 C.2       8 UNK         0.4948 
     53 O          31.4999   30.8007    3.0713 O.2       8 UNK        -0.5275 
     54 N          31.5850   32.5214    4.5380 N.am      9 UNK        -0.4246 
     55 CA         31.6056   31.7187    5.7638 C.3       9 UNK         0.0261 
     56 CB         31.3526   32.6310    6.9762 C.3       9 UNK        -0.1959 
     57 C          32.9280   30.9442    5.9149 C.2       9 UNK         0.5033 
     58 O          33.9780   31.5673    6.0886 O.2       9 UNK        -0.5390 
     59 N          32.8411   29.6114    5.8582 N.am      10 UNK        -0.4215 
     60 CA         33.9234   28.6383    5.9934 C.3       10 UNK         0.0240 
     61 CB         34.9222   28.7514    4.8204 C.3       10 UNK        -0.1982 
     62 C          33.2928   27.2384    6.0556 C.2       10 UNK         0.4970 
     63 O          32.0896   27.1009    5.8122 O.2       10 UNK        -0.4916 
     64 N          34.1131   26.2236    6.3547 N.am      11 UNK        -0.4279 
     65 CA         33.7339   24.7998    6.4579 C.3       11 UNK         0.1003 
     66 C          32.8954   24.4296    7.7204 C.2       11 UNK         0.5709 
     67 N          32.7474   25.3129    8.7006 N.am      11 UNK        -0.7358 
     68 O          32.3944   23.3132    7.8308 O.2       11 UNK        -0.4999 
     69 C69        33.1273   24.2325    5.1330 C.3       12 UNK        -0.0954 
     70 S70        34.0554   22.8144    4.4648 S.3       12 UNK        -0.2268 
     71 C71        32.9458   22.2599    3.1180 C.3       12 UNK         0.0203 
     72 H72        28.3509   24.8640    5.6620 H         1 UNK         0.0888 
     73 H73        29.5031   23.6236    5.1616 H         1 UNK         0.0888 
     74 H74        30.0712   25.0985    5.9535 H         1 UNK         0.0888 
     75 H75        31.1495   26.3451    4.4402 H         1 UNK         0.3017 
     76 H76        30.7777   26.1472    1.6308 H         1 UNK         0.0873 
     77 H77        32.8969   26.8606    2.9818 H         1 UNK         0.0745 
     78 H78        32.1950   28.4313    3.0903 H         1 UNK         0.0745 
     79 H79        34.8839   26.6023    1.3205 H         1 UNK         0.0705 
     80 H80        34.5480   26.6430   -0.3968 H         1 UNK         0.0705 
     81 H81        34.3444   24.6069    2.4617 H         1 UNK         0.1334 
     82 H82        31.1609   22.0592    1.1164 H         1 UNK         0.1417 
     83 H83        32.2536   25.5625   -1.1167 H         1 UNK         0.1562 
     84 H84        29.5029   23.4076   -0.5522 H         1 UNK         0.0748 
     85 H85        30.5979   22.3873   -1.4440 H         1 UNK         0.0748 
     86 H86        30.0412   26.8373   -2.5390 H         1 UNK         0.0940 
     87 H87        30.0274   26.2417   -0.9072 H         1 UNK         0.0940 
     88 H88        27.7320   25.5740   -2.7966 H         1 UNK         0.0703 
     89 H89        28.0466   25.5336    0.1488 H         1 UNK         0.3081 
     90 H90        25.0321   23.6386    0.5250 H         1 UNK         0.0719 
     91 H91        26.9997   22.1031    0.0949 H         1 UNK         0.0809 
     92 H92        27.9724   23.0921    1.1807 H         1 UNK         0.0809 
     93 H93        26.5646   22.2348    1.7908 H         1 UNK         0.0809 
     94 H94        26.9524   24.9237    2.3142 H         1 UNK         0.2990 
     95 H95        24.4728   27.3242    3.3875 H         1 UNK         0.0690 
     96 H96        25.4289   26.3552    5.4570 H         1 UNK         0.0788 
     97 H97        26.1783   25.0538    4.5362 H         1 UNK         0.0788 
     98 H98        24.4285   25.1825    4.6167 H         1 UNK         0.0788 
     99 H99        27.4350   26.9360    3.3894 H         1 UNK         0.2993 
    100 H100       28.0842   30.0635    2.1512 H         1 UNK         0.0949 
    101 H101       27.1685   31.0993    4.2506 H         1 UNK         0.0767 
    102 H102       27.9889   29.8752    5.2116 H         1 UNK         0.0767 
    103 H103       28.9151   31.0324    4.2514 H         1 UNK         0.0767 
    104 H104       29.5039   28.3776    4.0605 H         1 UNK         0.3013 
    105 H105       26.8928   27.5349   -0.1359 H         1 UNK         0.3121 
    106 H106       25.9856   29.5371    0.1316 H         1 UNK         0.0774 
    107 H107       24.3823   28.7292   -1.6063 H         1 UNK         0.0815 
    108 H108       24.5646   30.4742   -1.6372 H         1 UNK         0.0815 
    109 H109       25.3579   29.4945   -2.8607 H         1 UNK         0.0815 
    110 H110       28.7932   29.5009   -0.1655 H         1 UNK         0.2987 
    111 H111       29.4668   32.0661   -1.5362 H         1 UNK         0.0949 
    112 H112       30.7298   29.9698   -2.1602 H         1 UNK         0.0806 
    113 H113       31.7714   31.2081   -1.4935 H         1 UNK         0.0806 
    114 H114       31.2836   29.8350   -0.4977 H         1 UNK         0.0806 
    115 H115       31.9079   32.0612    0.2715 H         1 UNK         0.3010 
    116 H116       30.9028   33.8318    2.3605 H         1 UNK         0.0829 
    117 H117       33.7284   32.7828    1.7414 H         1 UNK         0.0813 
    118 H118       33.0480   34.2943    1.1377 H         1 UNK         0.0813 
    119 H119       33.3450   34.0874    2.8540 H         1 UNK         0.0813 
    120 H120       31.6633   33.5216    4.6517 H         1 UNK         0.3038 
    121 H121       30.7840   31.0015    5.7136 H         1 UNK         0.0769 
    122 H122       31.3552   32.0561    7.9032 H         1 UNK         0.0811 
    123 H123       30.3836   33.1257    6.9057 H         1 UNK         0.0811 
    124 H124       32.1182   33.4024    7.0699 H         1 UNK         0.0811 
    125 H125       31.9373   29.1733    5.7265 H         1 UNK         0.3204 
    126 H126       34.4407   28.8220    6.9369 H         1 UNK         0.0748 
    127 H127       35.6920   27.9808    4.8716 H         1 UNK         0.0771 
    128 H128       34.4296   28.6555    3.8537 H         1 UNK         0.0771 
    129 H129       35.4398   29.7104    4.8287 H         1 UNK         0.0771 
    130 H130       35.0828   26.4250    6.5528 H         1 UNK         0.2980 
    131 H131       34.6862   24.2991    6.6351 H         1 UNK         0.0545 
    132 H132       33.1623   26.2277    8.6355 H         1 UNK         0.3459 
    133 H133       32.2132   25.0572    9.5159 H         1 UNK         0.3459 
    134 H134       32.0876   23.9304    5.2572 H         1 UNK         0.0616 
    135 H135       33.1081   24.9960    4.3593 H         1 UNK         0.0616 
    136 H136       33.3239   21.3076    2.7441 H         1 UNK         0.0634 
    137 H137       31.9646   22.0534    3.5484 H         1 UNK         0.0634 
@<TRIPOS>BOND
     1    1    2 1    
     2    1   72 1    
     3    1   73 1    
     4    1   74 1    
     5    2    3 2    
     6    2    4 am   BACKBONE|DICT|INTERRES
     7    4    5 1    
     8    4   75 1    
     9    5    6 1    
    10    5   35 1    
    11    5   76 1    
    12    6    7 1    
    13    6   77 1    
    14    6   78 1    
    15    7    8 1    
    16    8    9 1    
    17    8   79 1    
    18    8   80 1    
    19    9   10 ar   
    20    9   14 ar   
    21   10   11 ar   
    22   10   81 1    
    23   11   12 ar   
    24   11   71 1    
    25   12   13 ar   
    26   12   82 1    
    27   13   14 ar   
    28   13   15 1    
    29   14   83 1    
    30   15   16 1    
    31   15   84 1    
    32   15   85 1    
    33   16   17 1    
    34   17   18 1    
    35   17   86 1    
    36   17   87 1    
    37   18   19 1    
    38   18   37 1    
    39   18   88 1    
    40   19   20 am   BACKBONE|DICT|INTERRES
    41   19   89 1    
    42   20   21 2    
    43   20   22 1    
    44   22   23 1    
    45   22   24 1    
    46   22   90 1    
    47   23   91 1    
    48   23   92 1    
    49   23   93 1    
    50   24   25 am   BACKBONE|DICT|INTERRES
    51   24   94 1    
    52   25   26 2    
    53   25   27 1    
    54   27   28 1    
    55   27   29 1    
    56   27   95 1    
    57   28   96 1    
    58   28   97 1    
    59   28   98 1    
    60   29   30 am   BACKBONE|DICT|INTERRES
    61   29   99 1    
    62   30   31 2    
    63   30   32 1    
    64   32   33 1    
    65   32   34 1    
    66   32  100 1    
    67   33  101 1    
    68   33  102 1    
    69   33  103 1    
    70   34   35 am   BACKBONE|DICT|INTERRES
    71   34  104 1    
    72   35   36 2    
    73   37   38 2    
    74   37   39 am   BACKBONE|DICT|INTERRES
    75   39   40 1    
    76   39  105 1    
    77   40   41 1    
    78   40   42 1    
    79   40  106 1    
    80   41  107 1    
    81   41  108 1    
    82   41  109 1    
    83   42   43 2    
    84   42   44 am   BACKBONE|DICT|INTERRES
    85   44   45 1    
    86   44  110 1    
    87   45   46 1    
    88   45   47 1    
    89   45  111 1    
    90   46  112 1    
    91   46  113 1    
    92   46  114 1    
    93   47   48 2    
    94   47   49 am   BACKBONE|DICT|INTERRES
    95   49   50 1    
    96   49  115 1    
    97   50   51 1    
    98   50   52 1    
    99   50  116 1    
   100   51  117 1    
   101   51  118 1    
   102   51  119 1    
   103   52   53 2    
   104   52   54 am   BACKBONE|DICT|INTERRES
   105   54   55 1    
   106   54  120 1    
   107   55   56 1    
   108   55   57 1    
   109   55  121 1    
   110   56  122 1    
   111   56  123 1    
   112   56  124 1    
   113   57   58 2    
   114   57   59 am   BACKBONE|DICT|INTERRES
   115   59   60 1    
   116   59  125 1    
   117   60   61 1    
   118   60   62 1    
   119   60  126 1    
   120   61  127 1    
   121   61  128 1    
   122   61  129 1    
   123   62   63 2    
   124   62   64 am   BACKBONE|DICT|INTERRES
   125   64   65 1    
   126   64  130 1    
   127   65   66 1    
   128   65   69 1    
   129   65  131 1    
   130   66   67 am   BACKBONE|DICT|INTERRES
   131   66   68 2    
   132   67  132 1    
   133   67  133 1    
   134   69   70 1    
   135   69  134 1    
   136   69  135 1    
   137   70   71 1    
   138   71  136 1    
   139   71  137 1    
@<TRIPOS>SUBSTRUCTURE
     1 UNK         1 GROUP             0       ****    0 ROOT    
