@<TRIPOS>MOLECULE
3R136
137   139    1
SMALL
USER_CHARGES


@<TRIPOS>ATOM
      1 CA         26.3742   19.8312    3.3428 C.3       0 UNK        -0.1979 
      2 C          26.9624   19.8064    1.9396 C.2       0 UNK         0.4864 
      3 O          26.5615   18.9757    1.1223 O.2       0 UNK        -0.5359 
      4 N          27.9149   20.7042    1.6587 N.am      1 UNK        -0.4318 
      5 CA         28.5322   20.8892    0.3424 C.3       1 UNK         0.0824 
      6 C6         29.9104   21.5908    0.4550 C.3       12 UNK        -0.0944 
      7 S7         29.8642   23.2343    1.2570 S.3       12 UNK        -0.2672 
      8 C8         31.1047   23.0032    2.5670 C.3       12 UNK         0.0333 
      9 C9         31.4494   24.3280    3.2247 C.ar      12 UNK        -0.0807 
     10 C10        32.4171   25.1572    2.6518 C.ar      12 UNK        -0.0894 
     11 C11        32.7249   26.3935    3.2263 C.ar      12 UNK        -0.0804 
     12 C12        32.0664   26.7898    4.3948 C.ar      12 UNK        -0.0824 
     13 C13        31.1099   25.9596    4.9882 C.ar      12 UNK        -0.0762 
     14 C14        30.8039   24.7290    4.3976 C.ar      12 UNK        -0.0782 
     15 C15        30.4013   26.3970    6.2625 C.3       12 UNK         0.0230 
     16 S16        29.1828   27.7132    5.9515 S.3       12 UNK        -0.2608 
     17 C17        28.0027   26.8845    4.8313 C.3       12 UNK        -0.0989 
     18 CA         28.2558   27.2187    3.3331 C.3       5 UNK         0.0716 
     19 N          27.5257   26.3466    2.4134 N.am      5 UNK        -0.4135 
     20 C          26.1960   26.2384    2.2823 C.2       4 UNK         0.5031 
     21 O          25.3882   26.8024    3.0236 O.2       4 UNK        -0.5229 
     22 CA         25.6839   25.3438    1.1341 C.3       4 UNK         0.0329 
     23 CB         24.2864   25.7649    0.6328 C.3       4 UNK        -0.2001 
     24 N          26.6223   25.2202    0.0095 N.am      4 UNK        -0.4303 
     25 C          27.0978   26.2037   -0.7749 C.2       3 UNK         0.5044 
     26 O          26.7877   27.3886   -0.6525 O.2       3 UNK        -0.5152 
     27 CA         28.1106   25.8136   -1.8702 C.3       3 UNK         0.0319 
     28 CB         29.5353   26.2105   -1.4455 C.3       3 UNK        -0.2001 
     29 N          28.0877   24.3866   -2.2039 N.am      3 UNK        -0.4354 
     30 C          27.1092   23.7818   -2.8946 C.2       2 UNK         0.4964 
     31 O          26.1684   24.3832   -3.4136 O.2       2 UNK        -0.5047 
     32 CA         27.1700   22.2453   -3.0096 C.3       2 UNK         0.0288 
     33 CB         27.7754   21.8326   -4.3614 C.3       2 UNK        -0.2113 
     34 N          27.9075   21.5782   -1.9279 N.am      2 UNK        -0.4145 
     35 C          27.5889   21.6346   -0.6258 C.2       1 UNK         0.5006 
     36 O          26.6364   22.2857   -0.1872 O.2       1 UNK        -0.5103 
     37 C          28.0477   28.7054    2.9757 C.2       5 UNK         0.5055 
     38 O          28.9099   29.2928    2.3253 O.2       5 UNK        -0.5220 
     39 N          26.9301   29.2935    3.4255 N.am      6 UNK        -0.4450 
     40 CA         26.5484   30.7130    3.3684 C.3       6 UNK         0.0367 
     41 CB         26.4873   31.2398    1.9209 C.3       6 UNK        -0.1929 
     42 C          27.4057   31.6277    4.2660 C.2       6 UNK         0.5070 
     43 O          26.8441   32.4720    4.9649 O.2       6 UNK        -0.5237 
     44 N          28.7278   31.4359    4.2663 N.am      7 UNK        -0.4739 
     45 CA         29.6897   32.0871    5.1481 C.3       7 UNK         0.0276 
     46 CB         30.1817   33.3987    4.5124 C.3       7 UNK        -0.1927 
     47 C          30.8561   31.1235    5.3884 C.2       7 UNK         0.5013 
     48 O          31.2308   30.3824    4.4772 O.2       7 UNK        -0.5193 
     49 N          31.4260   31.1638    6.5998 N.am      8 UNK        -0.4253 
     50 CA         32.6101   30.3888    6.9753 C.3       8 UNK         0.0242 
     51 CB         32.8354   30.4963    8.4917 C.3       8 UNK        -0.2000 
     52 C          33.8443   30.8816    6.2041 C.2       8 UNK         0.4948 
     53 O          34.0624   32.0941    6.1303 O.2       8 UNK        -0.5275 
     54 N          34.6088   29.9408    5.6318 N.am      9 UNK        -0.4246 
     55 CA         35.7803   30.1189    4.7582 C.3       9 UNK         0.0261 
     56 CB         36.9386   30.8214    5.4937 C.3       9 UNK        -0.1959 
     57 C          35.4724   30.8089    3.4145 C.2       9 UNK         0.5033 
     58 O          35.8263   30.2715    2.3651 O.2       9 UNK        -0.5390 
     59 N          34.7959   31.9612    3.4546 N.am      10 UNK        -0.4215 
     60 CA         34.3901   32.7770    2.3079 C.3       10 UNK         0.0240 
     61 CB         34.2497   34.2385    2.7750 C.3       10 UNK        -0.1982 
     62 C          33.1112   32.2512    1.6213 C.2       10 UNK         0.4970 
     63 O          32.2210   33.0407    1.3009 O.2       10 UNK        -0.4916 
     64 N          33.0393   30.9342    1.4010 N.am      11 UNK        -0.4279 
     65 CA         31.9183   30.2497    0.7381 C.3       11 UNK         0.1003 
     66 C          31.8739   30.4075   -0.8104 C.2       11 UNK         0.5709 
     67 N          32.8988   30.9542   -1.4552 N.am      11 UNK        -0.7358 
     68 O          30.8839   30.0423   -1.4395 O.2       11 UNK        -0.4999 
     69 C69        31.8103   28.7688    1.1826 C.3       12 UNK        -0.0954 
     70 S70        33.3159   27.7806    0.8850 S.3       12 UNK        -0.2268 
     71 C71        33.7674   27.2993    2.5830 C.3       12 UNK         0.0203 
     72 H72        25.3027   20.0239    3.2962 H         1 UNK         0.0888 
     73 H73        26.5275   18.8694    3.8315 H         1 UNK         0.0888 
     74 H74        26.8306   20.6030    3.9625 H         1 UNK         0.0888 
     75 H75        28.1788   21.3876    2.3535 H         1 UNK         0.3017 
     76 H76        28.7026   19.8982   -0.0846 H         1 UNK         0.0873 
     77 H77        30.5878   20.9394    1.0094 H         1 UNK         0.0745 
     78 H78        30.3714   21.7047   -0.5277 H         1 UNK         0.0745 
     79 H79        32.0079   22.5622    2.1420 H         1 UNK         0.0705 
     80 H80        30.7289   22.2925    3.3046 H         1 UNK         0.0705 
     81 H81        32.9173   24.8503    1.7433 H         1 UNK         0.1334 
     82 H82        32.2821   27.7527    4.8362 H         1 UNK         0.1417 
     83 H83        30.0566   24.0870    4.8438 H         1 UNK         0.1562 
     84 H84        31.1392   26.7636    6.9775 H         1 UNK         0.0748 
     85 H85        29.9053   25.5524    6.7435 H         1 UNK         0.0748 
     86 H86        26.9912   27.1535    5.1381 H         1 UNK         0.0940 
     87 H87        28.0704   25.8069    4.9853 H         1 UNK         0.0940 
     88 H88        29.3067   27.0097    3.1274 H         1 UNK         0.0703 
     89 H89        28.0984   25.8458    1.7497 H         1 UNK         0.3081 
     90 H90        25.5924   24.3420    1.5565 H         1 UNK         0.0719 
     91 H91        24.2834   26.7880    0.2557 H         1 UNK         0.0809 
     92 H92        23.9394   25.1107   -0.1671 H         1 UNK         0.0809 
     93 H93        23.5491   25.7123    1.4349 H         1 UNK         0.0809 
     94 H94        26.9073   24.2664   -0.1915 H         1 UNK         0.2990 
     95 H95        27.8540   26.3796   -2.7683 H         1 UNK         0.0690 
     96 H96        30.2596   25.9955   -2.2313 H         1 UNK         0.0788 
     97 H97        29.8535   25.6881   -0.5429 H         1 UNK         0.0788 
     98 H98        29.5956   27.2803   -1.2384 H         1 UNK         0.0788 
     99 H99        28.8309   23.8187   -1.8239 H         1 UNK         0.2993 
    100 H100       26.1399   21.8842   -2.9712 H         1 UNK         0.0949 
    101 H101       28.8183   22.1406   -4.4479 H         1 UNK         0.0767 
    102 H102       27.7295   20.7528   -4.5048 H         1 UNK         0.0767 
    103 H103       27.2310   22.2896   -5.1893 H         1 UNK         0.0767 
    104 H104       28.7087   21.0302   -2.2077 H         1 UNK         0.3013 
    105 H105       26.2603   28.6877    3.8843 H         1 UNK         0.3121 
    106 H106       25.5332   30.7513    3.7669 H         1 UNK         0.0774 
    107 H107       26.0663   32.2455    1.8938 H         1 UNK         0.0815 
    108 H108       27.4743   31.2931    1.4607 H         1 UNK         0.0815 
    109 H109       25.8592   30.6063    1.2945 H         1 UNK         0.0815 
    110 H110       29.1156   30.7067    3.6697 H         1 UNK         0.2987 
    111 H111       29.2123   32.3029    6.1067 H         1 UNK         0.0949 
    112 H112       30.9260   33.8861    5.1435 H         1 UNK         0.0806 
    113 H113       30.6432   33.2222    3.5402 H         1 UNK         0.0806 
    114 H114       29.3624   34.1035    4.3707 H         1 UNK         0.0806 
    115 H115       31.0878   31.8287    7.2800 H         1 UNK         0.3010 
    116 H116       32.4203   29.3423    6.7273 H         1 UNK         0.0829 
    117 H117       31.9756   30.1231    9.0486 H         1 UNK         0.0813 
    118 H118       33.7004   29.9075    8.7999 H         1 UNK         0.0813 
    119 H119       33.0162   31.5266    8.8015 H         1 UNK         0.0813 
    120 H120       34.3310   28.9785    5.7635 H         1 UNK         0.3038 
    121 H121       36.1191   29.1101    4.5158 H         1 UNK         0.0769 
    122 H122       37.8287   30.8628    4.8645 H         1 UNK         0.0811 
    123 H123       37.2108   30.2874    6.4041 H         1 UNK         0.0811 
    124 H124       36.6913   31.8469    5.7692 H         1 UNK         0.0811 
    125 H125       34.4943   32.2760    4.3762 H         1 UNK         0.3204 
    126 H126       35.1854   32.7430    1.5605 H         1 UNK         0.0748 
    127 H127       34.0184   34.8997    1.9387 H         1 UNK         0.0771 
    128 H128       33.4525   34.3492    3.5116 H         1 UNK         0.0771 
    129 H129       35.1740   34.6018    3.2245 H         1 UNK         0.0771 
    130 H130       33.8317   30.3561    1.6533 H         1 UNK         0.2980 
    131 H131       31.0055   30.7338    1.0912 H         1 UNK         0.0545 
    132 H132       33.7186   31.2516   -0.9523 H         1 UNK         0.3459 
    133 H133       32.8537   31.0560   -2.4566 H         1 UNK         0.3459 
    134 H134       30.9714   28.2748    0.6895 H         1 UNK         0.0616 
    135 H135       31.5694   28.7432    2.2457 H         1 UNK         0.0616 
    136 H136       33.9150   28.2022    3.1757 H         1 UNK         0.0634 
    137 H137       34.7269   26.7812    2.5607 H         1 UNK         0.0634 
@<TRIPOS>BOND
     1    1    2 1    
     2    1   72 1    
     3    1   73 1    
     4    1   74 1    
     5    2    3 2    
     6    2    4 am   BACKBONE|DICT|INTERRES
     7    4    5 1    
     8    4   75 1    
     9    5    6 1    
    10    5   35 1    
    11    5   76 1    
    12    6    7 1    
    13    6   77 1    
    14    6   78 1    
    15    7    8 1    
    16    8    9 1    
    17    8   79 1    
    18    8   80 1    
    19    9   10 ar   
    20    9   14 ar   
    21   10   11 ar   
    22   10   81 1    
    23   11   12 ar   
    24   11   71 1    
    25   12   13 ar   
    26   12   82 1    
    27   13   14 ar   
    28   13   15 1    
    29   14   83 1    
    30   15   16 1    
    31   15   84 1    
    32   15   85 1    
    33   16   17 1    
    34   17   18 1    
    35   17   86 1    
    36   17   87 1    
    37   18   19 1    
    38   18   37 1    
    39   18   88 1    
    40   19   20 am   BACKBONE|DICT|INTERRES
    41   19   89 1    
    42   20   21 2    
    43   20   22 1    
    44   22   23 1    
    45   22   24 1    
    46   22   90 1    
    47   23   91 1    
    48   23   92 1    
    49   23   93 1    
    50   24   25 am   BACKBONE|DICT|INTERRES
    51   24   94 1    
    52   25   26 2    
    53   25   27 1    
    54   27   28 1    
    55   27   29 1    
    56   27   95 1    
    57   28   96 1    
    58   28   97 1    
    59   28   98 1    
    60   29   30 am   BACKBONE|DICT|INTERRES
    61   29   99 1    
    62   30   31 2    
    63   30   32 1    
    64   32   33 1    
    65   32   34 1    
    66   32  100 1    
    67   33  101 1    
    68   33  102 1    
    69   33  103 1    
    70   34   35 am   BACKBONE|DICT|INTERRES
    71   34  104 1    
    72   35   36 2    
    73   37   38 2    
    74   37   39 am   BACKBONE|DICT|INTERRES
    75   39   40 1    
    76   39  105 1    
    77   40   41 1    
    78   40   42 1    
    79   40  106 1    
    80   41  107 1    
    81   41  108 1    
    82   41  109 1    
    83   42   43 2    
    84   42   44 am   BACKBONE|DICT|INTERRES
    85   44   45 1    
    86   44  110 1    
    87   45   46 1    
    88   45   47 1    
    89   45  111 1    
    90   46  112 1    
    91   46  113 1    
    92   46  114 1    
    93   47   48 2    
    94   47   49 am   BACKBONE|DICT|INTERRES
    95   49   50 1    
    96   49  115 1    
    97   50   51 1    
    98   50   52 1    
    99   50  116 1    
   100   51  117 1    
   101   51  118 1    
   102   51  119 1    
   103   52   53 2    
   104   52   54 am   BACKBONE|DICT|INTERRES
   105   54   55 1    
   106   54  120 1    
   107   55   56 1    
   108   55   57 1    
   109   55  121 1    
   110   56  122 1    
   111   56  123 1    
   112   56  124 1    
   113   57   58 2    
   114   57   59 am   BACKBONE|DICT|INTERRES
   115   59   60 1    
   116   59  125 1    
   117   60   61 1    
   118   60   62 1    
   119   60  126 1    
   120   61  127 1    
   121   61  128 1    
   122   61  129 1    
   123   62   63 2    
   124   62   64 am   BACKBONE|DICT|INTERRES
   125   64   65 1    
   126   64  130 1    
   127   65   66 1    
   128   65   69 1    
   129   65  131 1    
   130   66   67 am   BACKBONE|DICT|INTERRES
   131   66   68 2    
   132   67  132 1    
   133   67  133 1    
   134   69   70 1    
   135   69  134 1    
   136   69  135 1    
   137   70   71 1    
   138   71  136 1    
   139   71  137 1    
@<TRIPOS>SUBSTRUCTURE
     1 UNK         1 GROUP             0       ****    0 ROOT    
