@<TRIPOS>MOLECULE
3R136
137   139    1
SMALL
USER_CHARGES


@<TRIPOS>ATOM
      1 CA         29.9800   24.7478    2.7432 C.3       0 UNK        -0.1979 
      2 C          29.6507   23.8069    3.8986 C.2       0 UNK         0.4864 
      3 O          29.9722   24.1346    5.0395 O.2       0 UNK        -0.5359 
      4 N          29.0237   22.6385    3.6893 N.am      1 UNK        -0.4318 
      5 CA         28.4609   22.0634    2.4554 C.3       1 UNK         0.0824 
      6 C6         29.4821   21.8455    1.3008 C.3       12 UNK        -0.0944 
      7 S7         30.9012   20.8219    1.8066 S.3       12 UNK        -0.2672 
      8 C8         32.1271   21.2687    0.5367 C.3       12 UNK         0.0333 
      9 C9         32.6746   22.6740    0.7414 C.ar      12 UNK        -0.0807 
     10 C10        33.4497   22.9579    1.8691 C.ar      12 UNK        -0.0894 
     11 C11        33.9662   24.2391    2.0696 C.ar      12 UNK        -0.0804 
     12 C12        33.7187   25.2376    1.1230 C.ar      12 UNK        -0.0824 
     13 C13        32.9464   24.9688   -0.0130 C.ar      12 UNK        -0.0762 
     14 C14        32.4238   23.6832   -0.1959 C.ar      12 UNK        -0.0782 
     15 C15        32.7323   26.0448   -1.0732 C.3       12 UNK         0.0230 
     16 S16        32.1148   27.6193   -0.3919 S.3       12 UNK        -0.2608 
     17 C17        30.3167   27.3303   -0.3310 C.3       12 UNK        -0.0989 
     18 CA         29.5606   28.5718    0.2136 C.3       5 UNK         0.0716 
     19 N          28.2242   28.7146   -0.3843 N.am      5 UNK        -0.4135 
     20 C          27.3664   29.7187   -0.1413 C.2       4 UNK         0.5031 
     21 O          27.5788   30.6112    0.6790 O.2       4 UNK        -0.5229 
     22 CA         26.0462   29.7557   -0.9274 C.3       4 UNK         0.0329 
     23 CB         26.1235   30.8183   -2.0355 C.3       4 UNK        -0.2001 
     24 N          25.6335   28.4779   -1.5135 N.am      4 UNK        -0.4303 
     25 C          25.2744   27.3883   -0.8216 C.2       3 UNK         0.5044 
     26 O          25.3322   27.3139    0.4084 O.2       3 UNK        -0.5152 
     27 CA         24.7107   26.2143   -1.6479 C.3       3 UNK         0.0319 
     28 CB         25.3864   26.0509   -3.0302 C.3       3 UNK        -0.2001 
     29 N          24.7084   24.9453   -0.9118 N.am      3 UNK        -0.4354 
     30 C          25.7720   24.2377   -0.5065 C.2       2 UNK         0.4964 
     31 O          26.9455   24.5547   -0.7222 O.2       2 UNK        -0.5047 
     32 CA         25.4420   22.9202    0.2197 C.3       2 UNK         0.0288 
     33 CB         24.8660   21.8854   -0.7644 C.3       2 UNK        -0.2113 
     34 N          26.6156   22.3357    0.8675 N.am      2 UNK        -0.4145 
     35 C          27.1787   22.7923    1.9931 C.2       1 UNK         0.5006 
     36 O          26.7051   23.7151    2.6608 O.2       1 UNK        -0.5103 
     37 C          29.5542   28.6022    1.7576 C.2       5 UNK         0.5055 
     38 O          30.4488   29.2018    2.3578 O.2       5 UNK        -0.5220 
     39 N          28.5098   28.0227    2.3671 N.am      6 UNK        -0.4450 
     40 CA         28.2755   28.0117    3.8138 C.3       6 UNK         0.0367 
     41 CB         27.0860   27.0884    4.1182 C.3       6 UNK        -0.1929 
     42 C          28.0463   29.4025    4.4376 C.2       6 UNK         0.5070 
     43 O          28.2427   29.5470    5.6436 O.2       6 UNK        -0.5237 
     44 N          27.6403   30.3890    3.6278 N.am      7 UNK        -0.4739 
     45 CA         27.4551   31.7803    4.0406 C.3       7 UNK         0.0276 
     46 CB         26.0811   32.2723    3.5554 C.3       7 UNK        -0.1927 
     47 C          28.5715   32.6775    3.4874 C.2       7 UNK         0.5013 
     48 O          29.0701   33.5356    4.2160 O.2       7 UNK        -0.5193 
     49 N          28.9297   32.4803    2.2105 N.am      8 UNK        -0.4253 
     50 CA         29.8947   33.2972    1.4733 C.3       8 UNK         0.0242 
     51 CB         29.7769   32.9944   -0.0298 C.3       8 UNK        -0.2000 
     52 C          31.3448   33.1171    1.9460 C.2       8 UNK         0.4948 
     53 O          32.0765   34.1064    2.0083 O.2       8 UNK        -0.5275 
     54 N          31.7335   31.8738    2.2563 N.am      9 UNK        -0.4246 
     55 CA         33.0728   31.5216    2.7317 C.3       9 UNK         0.0261 
     56 CB         33.7017   30.4894    1.7800 C.3       9 UNK        -0.1959 
     57 C          33.0277   30.9709    4.1608 C.2       9 UNK         0.5033 
     58 O          33.9114   31.2951    4.9564 O.2       9 UNK        -0.5390 
     59 N          32.0329   30.1153    4.4501 N.am      10 UNK        -0.4215 
     60 CA         31.8074   29.4092    5.7213 C.3       10 UNK         0.0240 
     61 CB         31.4006   30.4063    6.8266 C.3       10 UNK        -0.1982 
     62 C          32.9819   28.5019    6.1487 C.2       10 UNK         0.4970 
     63 O          33.1061   28.1792    7.3314 O.2       10 UNK        -0.4916 
     64 N          33.8254   28.1269    5.1771 N.am      11 UNK        -0.4279 
     65 CA         35.0881   27.3899    5.3356 C.3       11 UNK         0.1003 
     66 C          36.1701   28.1417    6.1705 C.2       11 UNK         0.5709 
     67 N          36.0963   29.4623    6.3046 N.am      11 UNK        -0.7358 
     68 O          37.1091   27.5310    6.6761 O.2       11 UNK        -0.4999 
     69 C69        34.8840   25.9081    5.7654 C.3       12 UNK        -0.0954 
     70 S70        33.7040   25.0299    4.6860 S.3       12 UNK        -0.2268 
     71 C71        34.7873   24.5458    3.3100 C.3       12 UNK         0.0203 
     72 H72        30.2257   25.7385    3.1226 H         1 UNK         0.0888 
     73 H73        30.8536   24.3879    2.2040 H         1 UNK         0.0888 
     74 H74        29.1490   24.8568    2.0488 H         1 UNK         0.0888 
     75 H75        28.8372   22.0781    4.5083 H         1 UNK         0.3017 
     76 H76        28.1149   21.0729    2.7556 H         1 UNK         0.0873 
     77 H77        29.8291   22.7935    0.8925 H         1 UNK         0.0745 
     78 H78        29.0192   21.3216    0.4634 H         1 UNK         0.0745 
     79 H79        31.6800   21.1589   -0.4526 H         1 UNK         0.0705 
     80 H80        32.9529   20.5573    0.5803 H         1 UNK         0.0705 
     81 H81        33.6389   22.1821    2.5987 H         1 UNK         0.1334 
     82 H82        34.1281   26.2279    1.2697 H         1 UNK         0.1417 
     83 H83        31.8344   23.4630   -1.0758 H         1 UNK         0.1562 
     84 H84        32.0554   25.6998   -1.8562 H         1 UNK         0.0748 
     85 H85        33.6890   26.2350   -1.5612 H         1 UNK         0.0748 
     86 H86        30.1026   26.4297    0.2480 H         1 UNK         0.0940 
     87 H87        29.9987   27.1108   -1.3515 H         1 UNK         0.0940 
     88 H88        30.1012   29.4655   -0.1053 H         1 UNK         0.0703 
     89 H89        27.9544   28.0187   -1.0633 H         1 UNK         0.3081 
     90 H90        25.2693   30.0588   -0.2222 H         1 UNK         0.0719 
     91 H91        26.3999   31.7913   -1.6260 H         1 UNK         0.0809 
     92 H92        26.8664   30.5612   -2.7917 H         1 UNK         0.0809 
     93 H93        25.1626   30.9430   -2.5352 H         1 UNK         0.0809 
     94 H94        25.5500   28.4518   -2.5197 H         1 UNK         0.2990 
     95 H95        23.6606   26.4523   -1.8237 H         1 UNK         0.0690 
     96 H96        25.0216   25.1609   -3.5432 H         1 UNK         0.0788 
     97 H97        26.4704   25.9627   -2.9476 H         1 UNK         0.0788 
     98 H98        25.1737   26.8969   -3.6843 H         1 UNK         0.0788 
     99 H99        23.7921   24.6023   -0.6588 H         1 UNK         0.2993 
    100 H100       24.6942   23.1331    0.9873 H         1 UNK         0.0949 
    101 H101       23.9491   22.2470   -1.2315 H         1 UNK         0.0767 
    102 H102       25.5699   21.6561   -1.5658 H         1 UNK         0.0767 
    103 H103       24.6184   20.9518   -0.2583 H         1 UNK         0.0767 
    104 H104       27.0685   21.5849    0.3680 H         1 UNK         0.3013 
    105 H105       27.7958   27.5956    1.7922 H         1 UNK         0.3121 
    106 H106       29.1629   27.5912    4.2904 H         1 UNK         0.0774 
    107 H107       27.2831   26.0683    3.7907 H         1 UNK         0.0815 
    108 H108       26.8853   27.0472    5.1897 H         1 UNK         0.0815 
    109 H109       26.1737   27.4290    3.6265 H         1 UNK         0.0815 
    110 H110       27.5265   30.1941    2.6389 H         1 UNK         0.2987 
    111 H111       27.4763   31.8638    5.1296 H         1 UNK         0.0949 
    112 H112       25.2750   31.6834    3.9930 H         1 UNK         0.0806 
    113 H113       25.9151   33.3118    3.8417 H         1 UNK         0.0806 
    114 H114       25.9869   32.2127    2.4702 H         1 UNK         0.0806 
    115 H115       28.4375   31.7695    1.6703 H         1 UNK         0.3010 
    116 H116       29.6270   34.3447    1.6280 H         1 UNK         0.0829 
    117 H117       28.7686   33.1896   -0.3957 H         1 UNK         0.0813 
    118 H118       30.4586   33.6188   -0.6089 H         1 UNK         0.0813 
    119 H119       30.0168   31.9545   -0.2532 H         1 UNK         0.0813 
    120 H120       31.0622   31.1167    2.1858 H         1 UNK         0.3038 
    121 H121       33.7208   32.4005    2.7458 H         1 UNK         0.0769 
    122 H122       34.7081   30.2208    2.1039 H         1 UNK         0.0811 
    123 H123       33.7825   30.8847    0.7674 H         1 UNK         0.0811 
    124 H124       33.1173   29.5702    1.7309 H         1 UNK         0.0811 
    125 H125       31.4030   29.8446    3.6939 H         1 UNK         0.3204 
    126 H126       30.9634   28.7406    5.5512 H         1 UNK         0.0748 
    127 H127       31.0815   29.8833    7.7288 H         1 UNK         0.0771 
    128 H128       32.2256   31.0632    7.1037 H         1 UNK         0.0771 
    129 H129       30.5663   31.0308    6.5061 H         1 UNK         0.0771 
    130 H130       33.6252   28.4416    4.2407 H         1 UNK         0.2980 
    131 H131       35.5167   27.3678    4.3339 H         1 UNK         0.0545 
    132 H132       36.8050   29.9423    6.8359 H         1 UNK         0.3459 
    133 H133       35.3382   29.9876    5.8851 H         1 UNK         0.3459 
    134 H134       35.8308   25.3653    5.7565 H         1 UNK         0.0616 
    135 H135       34.5126   25.8569    6.7899 H         1 UNK         0.0616 
    136 H136       35.4983   25.3439    3.0932 H         1 UNK         0.0634 
    137 H137       35.3778   23.6765    3.6030 H         1 UNK         0.0634 
@<TRIPOS>BOND
     1    1    2 1    
     2    1   72 1    
     3    1   73 1    
     4    1   74 1    
     5    2    3 2    
     6    2    4 am   BACKBONE|DICT|INTERRES
     7    4    5 1    
     8    4   75 1    
     9    5    6 1    
    10    5   35 1    
    11    5   76 1    
    12    6    7 1    
    13    6   77 1    
    14    6   78 1    
    15    7    8 1    
    16    8    9 1    
    17    8   79 1    
    18    8   80 1    
    19    9   10 ar   
    20    9   14 ar   
    21   10   11 ar   
    22   10   81 1    
    23   11   12 ar   
    24   11   71 1    
    25   12   13 ar   
    26   12   82 1    
    27   13   14 ar   
    28   13   15 1    
    29   14   83 1    
    30   15   16 1    
    31   15   84 1    
    32   15   85 1    
    33   16   17 1    
    34   17   18 1    
    35   17   86 1    
    36   17   87 1    
    37   18   19 1    
    38   18   37 1    
    39   18   88 1    
    40   19   20 am   BACKBONE|DICT|INTERRES
    41   19   89 1    
    42   20   21 2    
    43   20   22 1    
    44   22   23 1    
    45   22   24 1    
    46   22   90 1    
    47   23   91 1    
    48   23   92 1    
    49   23   93 1    
    50   24   25 am   BACKBONE|DICT|INTERRES
    51   24   94 1    
    52   25   26 2    
    53   25   27 1    
    54   27   28 1    
    55   27   29 1    
    56   27   95 1    
    57   28   96 1    
    58   28   97 1    
    59   28   98 1    
    60   29   30 am   BACKBONE|DICT|INTERRES
    61   29   99 1    
    62   30   31 2    
    63   30   32 1    
    64   32   33 1    
    65   32   34 1    
    66   32  100 1    
    67   33  101 1    
    68   33  102 1    
    69   33  103 1    
    70   34   35 am   BACKBONE|DICT|INTERRES
    71   34  104 1    
    72   35   36 2    
    73   37   38 2    
    74   37   39 am   BACKBONE|DICT|INTERRES
    75   39   40 1    
    76   39  105 1    
    77   40   41 1    
    78   40   42 1    
    79   40  106 1    
    80   41  107 1    
    81   41  108 1    
    82   41  109 1    
    83   42   43 2    
    84   42   44 am   BACKBONE|DICT|INTERRES
    85   44   45 1    
    86   44  110 1    
    87   45   46 1    
    88   45   47 1    
    89   45  111 1    
    90   46  112 1    
    91   46  113 1    
    92   46  114 1    
    93   47   48 2    
    94   47   49 am   BACKBONE|DICT|INTERRES
    95   49   50 1    
    96   49  115 1    
    97   50   51 1    
    98   50   52 1    
    99   50  116 1    
   100   51  117 1    
   101   51  118 1    
   102   51  119 1    
   103   52   53 2    
   104   52   54 am   BACKBONE|DICT|INTERRES
   105   54   55 1    
   106   54  120 1    
   107   55   56 1    
   108   55   57 1    
   109   55  121 1    
   110   56  122 1    
   111   56  123 1    
   112   56  124 1    
   113   57   58 2    
   114   57   59 am   BACKBONE|DICT|INTERRES
   115   59   60 1    
   116   59  125 1    
   117   60   61 1    
   118   60   62 1    
   119   60  126 1    
   120   61  127 1    
   121   61  128 1    
   122   61  129 1    
   123   62   63 2    
   124   62   64 am   BACKBONE|DICT|INTERRES
   125   64   65 1    
   126   64  130 1    
   127   65   66 1    
   128   65   69 1    
   129   65  131 1    
   130   66   67 am   BACKBONE|DICT|INTERRES
   131   66   68 2    
   132   67  132 1    
   133   67  133 1    
   134   69   70 1    
   135   69  134 1    
   136   69  135 1    
   137   70   71 1    
   138   71  136 1    
   139   71  137 1    
@<TRIPOS>SUBSTRUCTURE
     1 UNK         1 GROUP             0       ****    0 ROOT    
