@<TRIPOS>MOLECULE
3R136
137   139    1
SMALL
USER_CHARGES


@<TRIPOS>ATOM
      1 CA         26.2746   27.5766    3.3052 C.3       0 UNK        -0.1979 
      2 C          26.3916   26.1080    2.9314 C.2       0 UNK         0.4864 
      3 O          25.4345   25.3616    3.1460 O.2       0 UNK        -0.5359 
      4 N          27.5376   25.6806    2.3764 N.am      1 UNK        -0.4318 
      5 CA         27.8048   24.3016    1.9446 C.3       1 UNK         0.0824 
      6 C6         29.2416   24.1283    1.4025 C.3       12 UNK        -0.0944 
      7 S7         30.4994   24.2822    2.7136 S.3       12 UNK        -0.2672 
      8 C8         32.0178   23.9459    1.7683 C.3       12 UNK         0.0333 
      9 C9         32.4873   25.1580    0.9738 C.ar      12 UNK        -0.0807 
     10 C10        33.4060   26.0479    1.5374 C.ar      12 UNK        -0.0894 
     11 C11        33.8924   27.1306    0.7990 C.ar      12 UNK        -0.0804 
     12 C12        33.4276   27.3418   -0.5025 C.ar      12 UNK        -0.0824 
     13 C13        32.5027   26.4633   -1.0765 C.ar      12 UNK        -0.0762 
     14 C14        32.0443   25.3678   -0.3367 C.ar      12 UNK        -0.0782 
     15 C15        32.0412   26.6733   -2.5127 C.3       12 UNK         0.0230 
     16 S16        30.7519   27.9514   -2.6461 S.3       12 UNK        -0.2608 
     17 C17        29.2855   27.0461   -2.0465 C.3       12 UNK        -0.0989 
     18 CA         28.0588   27.9740   -1.8152 C.3       5 UNK         0.0716 
     19 N          26.7995   27.2486   -1.9255 N.am      5 UNK        -0.4135 
     20 C          26.1955   26.8853   -3.0598 C.2       4 UNK         0.5031 
     21 O          26.6405   27.1457   -4.1789 O.2       4 UNK        -0.5229 
     22 CA         24.8831   26.0917   -2.9441 C.3       4 UNK         0.0329 
     23 CB         25.0194   24.7215   -3.6321 C.3       4 UNK        -0.2001 
     24 N          24.4835   25.8640   -1.5527 N.am      4 UNK        -0.4303 
     25 C          23.3449   26.2925   -0.9882 C.2       3 UNK         0.5044 
     26 O          22.5454   27.0390   -1.5559 O.2       3 UNK        -0.5152 
     27 CA         23.0378   25.8041    0.4482 C.3       3 UNK         0.0319 
     28 CB         21.5244   25.6656    0.7166 C.3       3 UNK        -0.2001 
     29 N          23.7464   24.5712    0.8190 N.am      3 UNK        -0.4354 
     30 C          23.6984   23.3811    0.1941 C.2       2 UNK         0.4964 
     31 O          22.8888   23.1107   -0.6941 O.2       2 UNK        -0.5047 
     32 CA         24.7614   22.3297    0.5872 C.3       2 UNK         0.0288 
     33 CB         25.2371   21.5090   -0.6311 C.3       2 UNK        -0.2113 
     34 N          25.9205   22.8769    1.3100 N.am      2 UNK        -0.4145 
     35 C          26.7652   23.8397    0.9034 C.2       1 UNK         0.5006 
     36 O          26.7037   24.4031   -0.1936 O.2       1 UNK        -0.5103 
     37 C          28.0817   28.6662   -0.4405 C.2       5 UNK         0.5055 
     38 O          27.0945   28.6078    0.3002 O.2       5 UNK        -0.5220 
     39 N          29.2227   29.2836   -0.1155 N.am      6 UNK        -0.4450 
     40 CA         29.5731   29.7587    1.2232 C.3       6 UNK         0.0367 
     41 CB         30.8550   30.6024    1.1209 C.3       6 UNK        -0.1929 
     42 C          29.7742   28.5849    2.1997 C.2       6 UNK         0.5070 
     43 O          29.8428   27.4307    1.7770 O.2       6 UNK        -0.5237 
     44 N          29.8416   28.8943    3.4967 N.am      7 UNK        -0.4739 
     45 CA         30.2098   27.9383    4.5400 C.3       7 UNK         0.0276 
     46 CB         29.3823   28.2295    5.8025 C.3       7 UNK        -0.1927 
     47 C          31.7023   28.1035    4.8388 C.2       7 UNK         0.5013 
     48 O          32.1885   29.2360    4.8310 O.2       7 UNK        -0.5193 
     49 N          32.3931   27.0057    5.1744 N.am      8 UNK        -0.4253 
     50 CA         33.8270   26.9947    5.5029 C.3       8 UNK         0.0242 
     51 CB         34.2733   25.5553    5.8019 C.3       8 UNK        -0.2000 
     52 C          34.2229   27.9391    6.6568 C.2       8 UNK         0.4948 
     53 O          35.3158   28.5062    6.6300 O.2       8 UNK        -0.5275 
     54 N          33.3059   28.1343    7.6153 N.am      9 UNK        -0.4246 
     55 CA         33.4271   29.1004    8.7094 C.3       9 UNK         0.0261 
     56 CB         32.3260   28.8263    9.7469 C.3       9 UNK        -0.1959 
     57 C          33.3768   30.5714    8.2501 C.2       9 UNK         0.5033 
     58 O          33.9384   31.4251    8.9380 O.2       9 UNK        -0.5390 
     59 N          32.7167   30.8487    7.1157 N.am      10 UNK        -0.4215 
     60 CA         32.6850   32.1668    6.4796 C.3       10 UNK         0.0240 
     61 CB         31.3658   32.3500    5.7093 C.3       10 UNK        -0.1982 
     62 C          33.8944   32.3596    5.5519 C.2       10 UNK         0.4970 
     63 O          34.4246   33.4696    5.4903 O.2       10 UNK        -0.4916 
     64 N          34.3176   31.2866    4.8660 N.am      11 UNK        -0.4279 
     65 CA         35.5430   31.2440    4.0521 C.3       11 UNK         0.1003 
     66 C          36.8305   31.5069    4.8817 C.2       11 UNK         0.5709 
     67 N          36.9918   30.8624    6.0317 N.am      11 UNK        -0.7358 
     68 O          37.6824   32.2954    4.4789 O.2       11 UNK        -0.4999 
     69 C69        35.6962   29.9153    3.2688 C.3       12 UNK        -0.0954 
     70 S70        34.2702   29.4827    2.2235 S.3       12 UNK        -0.2268 
     71 C71        34.9675   28.0284    1.3893 C.3       12 UNK         0.0203 
     72 H72        27.1812   28.1303    3.0806 H         1 UNK         0.0888 
     73 H73        26.0675   27.6791    4.3697 H         1 UNK         0.0888 
     74 H74        25.4573   28.0373    2.7511 H         1 UNK         0.0888 
     75 H75        28.2958   26.3359    2.1970 H         1 UNK         0.3017 
     76 H76        27.7035   23.6677    2.8281 H         1 UNK         0.0873 
     77 H77        29.4393   24.8682    0.6267 H         1 UNK         0.0745 
     78 H78        29.3651   23.1475    0.9385 H         1 UNK         0.0745 
     79 H79        32.7982   23.6406    2.4670 H         1 UNK         0.0705 
     80 H80        31.8606   23.0939    1.1052 H         1 UNK         0.0705 
     81 H81        33.7629   25.8825    2.5443 H         1 UNK         0.1334 
     82 H82        33.8015   28.1785   -1.0768 H         1 UNK         0.1417 
     83 H83        31.3476   24.6726   -0.7839 H         1 UNK         0.1562 
     84 H84        31.6764   25.7399   -2.9446 H         1 UNK         0.0748 
     85 H85        32.8938   26.9739   -3.1236 H         1 UNK         0.0748 
     86 H86        29.5306   26.4917   -1.1391 H         1 UNK         0.0940 
     87 H87        29.0545   26.2914   -2.8001 H         1 UNK         0.0940 
     88 H88        28.0496   28.7649   -2.5685 H         1 UNK         0.0703 
     89 H89        26.3504   27.0686   -1.0368 H         1 UNK         0.3081 
     90 H90        24.1203   26.6661   -3.4731 H         1 UNK         0.0719 
     91 H91        25.8013   24.1172   -3.1700 H         1 UNK         0.0809 
     92 H92        24.0874   24.1581   -3.5790 H         1 UNK         0.0809 
     93 H93        25.2710   24.8327   -4.6876 H         1 UNK         0.0809 
     94 H94        25.1031   25.2673   -1.0105 H         1 UNK         0.2990 
     95 H95        23.4208   26.5789    1.1139 H         1 UNK         0.0690 
     96 H96        21.3317   25.3318    1.7361 H         1 UNK         0.0788 
     97 H97        21.0558   24.9543    0.0358 H         1 UNK         0.0788 
     98 H98        21.0140   26.6210    0.5891 H         1 UNK         0.0788 
     99 H99        24.4201   24.6818    1.5729 H         1 UNK         0.2993 
    100 H100       24.2634   21.6461    1.2765 H         1 UNK         0.0949 
    101 H101       24.4066   20.9780   -1.0980 H         1 UNK         0.0767 
    102 H102       25.6869   22.1441   -1.3950 H         1 UNK         0.0767 
    103 H103       25.9741   20.7598   -0.3416 H         1 UNK         0.0767 
    104 H104       26.0339   22.5267    2.2519 H         1 UNK         0.3013 
    105 H105       29.9860   29.2103   -0.7753 H         1 UNK         0.3121 
    106 H106       28.7583   30.3824    1.5964 H         1 UNK         0.0774 
    107 H107       30.7118   31.4660    0.4715 H         1 UNK         0.0815 
    108 H108       31.6851   30.0173    0.7226 H         1 UNK         0.0815 
    109 H109       31.1653   30.9797    2.0964 H         1 UNK         0.0815 
    110 H110       29.8397   29.8666    3.7691 H         1 UNK         0.2987 
    111 H111       30.0144   26.9132    4.2174 H         1 UNK         0.0949 
    112 H112       29.5654   29.2344    6.1862 H         1 UNK         0.0806 
    113 H113       28.3146   28.1378    5.6051 H         1 UNK         0.0806 
    114 H114       29.6236   27.5259    6.6002 H         1 UNK         0.0806 
    115 H115       31.9213   26.1124    5.1700 H         1 UNK         0.3010 
    116 H116       34.3594   27.3363    4.6137 H         1 UNK         0.0829 
    117 H117       34.0936   24.8974    4.9513 H         1 UNK         0.0813 
    118 H118       35.3419   25.5161    6.0187 H         1 UNK         0.0813 
    119 H119       33.7503   25.1407    6.6645 H         1 UNK         0.0813 
    120 H120       32.4416   27.6159    7.5587 H         1 UNK         0.3038 
    121 H121       34.3957   28.9423    9.1887 H         1 UNK         0.0769 
    122 H122       31.3292   28.9503    9.3217 H         1 UNK         0.0811 
    123 H123       32.4070   29.5122   10.5915 H         1 UNK         0.0811 
    124 H124       32.3990   27.8147   10.1466 H         1 UNK         0.0811 
    125 H125       32.3476   30.0839    6.5595 H         1 UNK         0.3204 
    126 H126       32.7277   32.9381    7.2518 H         1 UNK         0.0748 
    127 H127       30.5031   32.1971    6.3577 H         1 UNK         0.0771 
    128 H128       31.2928   33.3605    5.3054 H         1 UNK         0.0771 
    129 H129       31.2810   31.6615    4.8688 H         1 UNK         0.0771 
    130 H130       33.7733   30.4315    4.9046 H         1 UNK         0.2980 
    131 H131       35.4615   32.0492    3.3196 H         1 UNK         0.0545 
    132 H132       37.8207   31.0265    6.5795 H         1 UNK         0.3459 
    133 H133       36.3240   30.1536    6.3210 H         1 UNK         0.3459 
    134 H134       36.5767   29.9644    2.6250 H         1 UNK         0.0616 
    135 H135       35.8696   29.0877    3.9583 H         1 UNK         0.0616 
    136 H136       35.5683   27.4558    2.0978 H         1 UNK         0.0634 
    137 H137       35.6527   28.3603    0.6079 H         1 UNK         0.0634 
@<TRIPOS>BOND
     1    1    2 1    
     2    1   72 1    
     3    1   73 1    
     4    1   74 1    
     5    2    3 2    
     6    2    4 am   BACKBONE|DICT|INTERRES
     7    4    5 1    
     8    4   75 1    
     9    5    6 1    
    10    5   35 1    
    11    5   76 1    
    12    6    7 1    
    13    6   77 1    
    14    6   78 1    
    15    7    8 1    
    16    8    9 1    
    17    8   79 1    
    18    8   80 1    
    19    9   10 ar   
    20    9   14 ar   
    21   10   11 ar   
    22   10   81 1    
    23   11   12 ar   
    24   11   71 1    
    25   12   13 ar   
    26   12   82 1    
    27   13   14 ar   
    28   13   15 1    
    29   14   83 1    
    30   15   16 1    
    31   15   84 1    
    32   15   85 1    
    33   16   17 1    
    34   17   18 1    
    35   17   86 1    
    36   17   87 1    
    37   18   19 1    
    38   18   37 1    
    39   18   88 1    
    40   19   20 am   BACKBONE|DICT|INTERRES
    41   19   89 1    
    42   20   21 2    
    43   20   22 1    
    44   22   23 1    
    45   22   24 1    
    46   22   90 1    
    47   23   91 1    
    48   23   92 1    
    49   23   93 1    
    50   24   25 am   BACKBONE|DICT|INTERRES
    51   24   94 1    
    52   25   26 2    
    53   25   27 1    
    54   27   28 1    
    55   27   29 1    
    56   27   95 1    
    57   28   96 1    
    58   28   97 1    
    59   28   98 1    
    60   29   30 am   BACKBONE|DICT|INTERRES
    61   29   99 1    
    62   30   31 2    
    63   30   32 1    
    64   32   33 1    
    65   32   34 1    
    66   32  100 1    
    67   33  101 1    
    68   33  102 1    
    69   33  103 1    
    70   34   35 am   BACKBONE|DICT|INTERRES
    71   34  104 1    
    72   35   36 2    
    73   37   38 2    
    74   37   39 am   BACKBONE|DICT|INTERRES
    75   39   40 1    
    76   39  105 1    
    77   40   41 1    
    78   40   42 1    
    79   40  106 1    
    80   41  107 1    
    81   41  108 1    
    82   41  109 1    
    83   42   43 2    
    84   42   44 am   BACKBONE|DICT|INTERRES
    85   44   45 1    
    86   44  110 1    
    87   45   46 1    
    88   45   47 1    
    89   45  111 1    
    90   46  112 1    
    91   46  113 1    
    92   46  114 1    
    93   47   48 2    
    94   47   49 am   BACKBONE|DICT|INTERRES
    95   49   50 1    
    96   49  115 1    
    97   50   51 1    
    98   50   52 1    
    99   50  116 1    
   100   51  117 1    
   101   51  118 1    
   102   51  119 1    
   103   52   53 2    
   104   52   54 am   BACKBONE|DICT|INTERRES
   105   54   55 1    
   106   54  120 1    
   107   55   56 1    
   108   55   57 1    
   109   55  121 1    
   110   56  122 1    
   111   56  123 1    
   112   56  124 1    
   113   57   58 2    
   114   57   59 am   BACKBONE|DICT|INTERRES
   115   59   60 1    
   116   59  125 1    
   117   60   61 1    
   118   60   62 1    
   119   60  126 1    
   120   61  127 1    
   121   61  128 1    
   122   61  129 1    
   123   62   63 2    
   124   62   64 am   BACKBONE|DICT|INTERRES
   125   64   65 1    
   126   64  130 1    
   127   65   66 1    
   128   65   69 1    
   129   65  131 1    
   130   66   67 am   BACKBONE|DICT|INTERRES
   131   66   68 2    
   132   67  132 1    
   133   67  133 1    
   134   69   70 1    
   135   69  134 1    
   136   69  135 1    
   137   70   71 1    
   138   71  136 1    
   139   71  137 1    
@<TRIPOS>SUBSTRUCTURE
     1 UNK         1 GROUP             0       ****    0 ROOT    
