@<TRIPOS>MOLECULE
3R136
137   139    1
SMALL
USER_CHARGES


@<TRIPOS>ATOM
      1 CA         26.8169   20.1309    3.9144 C.3       0 UNK        -0.1979 
      2 C          26.9448   21.0414    2.7016 C.2       0 UNK         0.4864 
      3 O          26.0288   21.0913    1.8793 O.2       0 UNK        -0.5359 
      4 N          28.0779   21.7450    2.5848 N.am      1 UNK        -0.4318 
      5 CA         28.3719   22.7211    1.5341 C.3       1 UNK         0.0824 
      6 C6         29.8505   22.6441    1.0635 C.3       12 UNK        -0.0944 
      7 S7         31.1019   22.6768    2.4003 S.3       12 UNK        -0.2672 
      8 C8         32.6582   22.7116    1.4501 C.3       12 UNK         0.0333 
      9 C9         32.9999   24.1253    1.0041 C.ar      12 UNK        -0.0807 
     10 C10        33.8425   24.9295    1.7776 C.ar      12 UNK        -0.0894 
     11 C11        34.1074   26.2525    1.4029 C.ar      12 UNK        -0.0804 
     12 C12        33.5083   26.7709    0.2484 C.ar      12 UNK        -0.0824 
     13 C13        32.6782   25.9681   -0.5398 C.ar      12 UNK        -0.0762 
     14 C14        32.4558   24.6396   -0.1738 C.ar      12 UNK        -0.0782 
     15 C15        31.9696   26.5289   -1.7613 C.3       12 UNK         0.0230 
     16 S16        30.2216   26.8058   -1.3587 S.3       12 UNK        -0.2608 
     17 C17        29.4718   27.0498   -3.0023 C.3       12 UNK        -0.0989 
     18 CA         28.0322   27.6328   -2.9417 C.3       5 UNK         0.0716 
     19 N          27.1582   26.8438   -2.0645 N.am      5 UNK        -0.4135 
     20 C          26.0621   26.1755   -2.4470 C.2       4 UNK         0.5031 
     21 O          25.6819   26.0923   -3.6154 O.2       4 UNK        -0.5229 
     22 CA         25.2293   25.4907   -1.3430 C.3       4 UNK         0.0329 
     23 CB         25.6516   24.0199   -1.2038 C.3       4 UNK        -0.2001 
     24 N          25.3088   26.1431   -0.0303 N.am      4 UNK        -0.4303 
     25 C          24.9507   27.4117    0.2262 C.2       3 UNK         0.5044 
     26 O          24.4719   28.1690   -0.6175 O.2       3 UNK        -0.5152 
     27 CA         25.2390   27.9634    1.6357 C.3       3 UNK         0.0319 
     28 CB         23.9865   27.8603    2.5193 C.3       3 UNK        -0.2001 
     29 N          26.3658   27.3207    2.3178 N.am      3 UNK        -0.4354 
     30 C          27.6145   27.2171    1.8403 C.2       2 UNK         0.4964 
     31 O          27.9618   27.6720    0.7503 O.2       2 UNK        -0.5047 
     32 CA         28.6296   26.4310    2.6916 C.3       2 UNK         0.0288 
     33 CB         28.2873   26.4142    4.1979 C.3       2 UNK        -0.2113 
     34 N          28.8281   25.0582    2.2058 N.am      2 UNK        -0.4145 
     35 C          27.8920   24.1217    1.9780 C.2       1 UNK         0.5006 
     36 O          26.6813   24.3238    2.0973 O.2       1 UNK        -0.5103 
     37 C          28.0051   29.1299   -2.5546 C.2       5 UNK         0.5055 
     38 O          28.8303   29.8948   -3.0573 O.2       5 UNK        -0.5220 
     39 N          27.0616   29.5254   -1.6821 N.am      6 UNK        -0.4450 
     40 CA         26.8795   30.8601   -1.0972 C.3       6 UNK         0.0367 
     41 CB         26.4334   31.8725   -2.1736 C.3       6 UNK        -0.1929 
     42 C          28.0909   31.3539   -0.2761 C.2       6 UNK         0.5070 
     43 O          28.3114   32.5630   -0.1816 O.2       6 UNK        -0.5237 
     44 N          28.8506   30.4212    0.3103 N.am      7 UNK        -0.4739 
     45 CA         29.9943   30.6992    1.1763 C.3       7 UNK         0.0276 
     46 CB         31.0593   29.6124    0.9472 C.3       7 UNK        -0.1927 
     47 C          29.5598   30.7161    2.6486 C.2       7 UNK         0.5013 
     48 O          28.5439   30.1138    3.0048 O.2       7 UNK        -0.5193 
     49 N          30.3660   31.3690    3.4937 N.am      8 UNK        -0.4253 
     50 CA         30.2629   31.2632    4.9491 C.3       8 UNK         0.0242 
     51 CB         31.0211   32.4309    5.6021 C.3       8 UNK        -0.2000 
     52 C          30.8554   29.9206    5.3988 C.2       8 UNK         0.4948 
     53 O          31.9197   29.5442    4.9049 O.2       8 UNK        -0.5275 
     54 N          30.1943   29.2452    6.3484 N.am      9 UNK        -0.4246 
     55 CA         30.5791   27.9183    6.8522 C.3       9 UNK         0.0261 
     56 CB         29.4825   27.3954    7.7943 C.3       9 UNK        -0.1959 
     57 C          31.9582   27.8583    7.5372 C.2       9 UNK         0.5033 
     58 O          32.5515   26.7809    7.6016 O.2       9 UNK        -0.5390 
     59 N          32.4488   29.0073    8.0204 N.am      10 UNK        -0.4215 
     60 CA         33.8001   29.1766    8.5560 C.3       10 UNK         0.0240 
     61 CB         33.8432   30.4601    9.4024 C.3       10 UNK        -0.1982 
     62 C          34.8916   29.2155    7.4676 C.2       10 UNK         0.4970 
     63 O          36.0577   29.0016    7.8010 O.2       10 UNK        -0.4916 
     64 N          34.5141   29.5065    6.2118 N.am      11 UNK        -0.4279 
     65 CA         35.4000   29.6360    5.0401 C.3       11 UNK         0.1003 
     66 C          36.4630   30.7750    5.1410 C.2       11 UNK         0.5709 
     67 N          36.2728   31.7795    5.9889 N.am      11 UNK        -0.7358 
     68 O          37.4570   30.7759    4.4182 O.2       11 UNK        -0.4999 
     69 C69        35.9938   28.2696    4.5910 C.3       12 UNK        -0.0954 
     70 S70        34.6976   27.1277    4.0004 S.3       12 UNK        -0.2268 
     71 C71        35.0666   27.1156    2.2154 C.3       12 UNK         0.0203 
     72 H72        26.6739   19.0988    3.5955 H         1 UNK         0.0888 
     73 H73        27.7020   20.1696    4.5493 H         1 UNK         0.0888 
     74 H74        25.9563   20.4251    4.5146 H         1 UNK         0.0888 
     75 H75        28.7913   21.6612    3.2958 H         1 UNK         0.3017 
     76 H76        27.7663   22.4766    0.6591 H         1 UNK         0.0873 
     77 H77        30.0448   23.4368    0.3430 H         1 UNK         0.0745 
     78 H78        29.9943   21.7130    0.5128 H         1 UNK         0.0745 
     79 H79        32.5863   22.0442    0.5898 H         1 UNK         0.0705 
     80 H80        33.4594   22.3157    2.0760 H         1 UNK         0.0705 
     81 H81        34.2860   24.5287    2.6789 H         1 UNK         0.1334 
     82 H82        33.6872   27.7981   -0.0386 H         1 UNK         0.1417 
     83 H83        31.8214   24.0216   -0.7930 H         1 UNK         0.1562 
     84 H84        32.0532   25.8273   -2.5928 H         1 UNK         0.0748 
     85 H85        32.4237   27.4659   -2.0871 H         1 UNK         0.0748 
     86 H86        29.4457   26.0808   -3.5029 H         1 UNK         0.0940 
     87 H87        30.1253   27.6777   -3.6110 H         1 UNK         0.0940 
     88 H88        27.6399   27.6078   -3.9601 H         1 UNK         0.0703 
     89 H89        27.4144   26.8630   -1.0818 H         1 UNK         0.3081 
     90 H90        24.1835   25.5199   -1.6555 H         1 UNK         0.0719 
     91 H91        25.4985   23.4808   -2.1398 H         1 UNK         0.0809 
     92 H92        26.7073   23.9309   -0.9478 H         1 UNK         0.0809 
     93 H93        25.0735   23.5059   -0.4351 H         1 UNK         0.0809 
     94 H94        25.7027   25.5961    0.7289 H         1 UNK         0.2990 
     95 H95        25.4943   29.0192    1.5242 H         1 UNK         0.0690 
     96 H96        24.1416   28.3400    3.4860 H         1 UNK         0.0788 
     97 H97        23.7048   26.8219    2.6993 H         1 UNK         0.0788 
     98 H98        23.1344   28.3530    2.0485 H         1 UNK         0.0788 
     99 H99        26.1650   26.8759    3.2014 H         1 UNK         0.2993 
    100 H100       29.5851   26.9450    2.5766 H         1 UNK         0.0949 
    101 H101       27.3686   25.8670    4.4120 H         1 UNK         0.0767 
    102 H102       29.0839   25.9388    4.7693 H         1 UNK         0.0767 
    103 H103       28.1730   27.4284    4.5843 H         1 UNK         0.0767 
    104 H104       29.7923   24.7864    2.0613 H         1 UNK         0.3013 
    105 H105       26.3989   28.8296   -1.3622 H         1 UNK         0.3121 
    106 H106       26.0605   30.7621   -0.3833 H         1 UNK         0.0774 
    107 H107       25.5662   31.5092   -2.7248 H         1 UNK         0.0815 
    108 H108       26.1523   32.8252   -1.7233 H         1 UNK         0.0815 
    109 H109       27.2281   32.0755   -2.8920 H         1 UNK         0.0815 
    110 H110       28.5556   29.4489    0.2666 H         1 UNK         0.2987 
    111 H111       30.4261   31.6706    0.9250 H         1 UNK         0.0949 
    112 H112       31.3937   29.5992   -0.0903 H         1 UNK         0.0806 
    113 H113       31.9389   29.7789    1.5707 H         1 UNK         0.0806 
    114 H114       30.6791   28.6181    1.1832 H         1 UNK         0.0806 
    115 H115       31.2058   31.7985    3.1337 H         1 UNK         0.3010 
    116 H116       29.2116   31.3177    5.2410 H         1 UNK         0.0829 
    117 H117       32.0837   32.4145    5.3550 H         1 UNK         0.0813 
    118 H118       30.6181   33.3923    5.2829 H         1 UNK         0.0813 
    119 H119       30.9385   32.3918    6.6890 H         1 UNK         0.0813 
    120 H120       29.3364   29.6339    6.7142 H         1 UNK         0.3038 
    121 H121       30.6362   27.2516    5.9899 H         1 UNK         0.0769 
    122 H122       29.7249   26.3960    8.1587 H         1 UNK         0.0811 
    123 H123       28.5203   27.3261    7.2865 H         1 UNK         0.0811 
    124 H124       29.3587   28.0388    8.6663 H         1 UNK         0.0811 
    125 H125       31.8784   29.8364    7.9439 H         1 UNK         0.3204 
    126 H126       34.0214   28.3297    9.2093 H         1 UNK         0.0748 
    127 H127       34.8312   30.6056    9.8417 H         1 UNK         0.0771 
    128 H128       33.6173   31.3462    8.8078 H         1 UNK         0.0771 
    129 H129       33.1295   30.4165   10.2255 H         1 UNK         0.0771 
    130 H130       33.5267   29.6069    5.9983 H         1 UNK         0.2980 
    131 H131       34.7480   29.9749    4.2342 H         1 UNK         0.0545 
    132 H132       35.4581   31.8032    6.5796 H         1 UNK         0.3459 
    133 H133       36.9574   32.5172    6.0399 H         1 UNK         0.3459 
    134 H134       36.7245   28.4017    3.7917 H         1 UNK         0.0616 
    135 H135       36.5347   27.7930    5.4093 H         1 UNK         0.0616 
    136 H136       35.0531   28.1454    1.8544 H         1 UNK         0.0634 
    137 H137       36.0807   26.7437    2.0637 H         1 UNK         0.0634 
@<TRIPOS>BOND
     1    1    2 1    
     2    1   72 1    
     3    1   73 1    
     4    1   74 1    
     5    2    3 2    
     6    2    4 am   BACKBONE|DICT|INTERRES
     7    4    5 1    
     8    4   75 1    
     9    5    6 1    
    10    5   35 1    
    11    5   76 1    
    12    6    7 1    
    13    6   77 1    
    14    6   78 1    
    15    7    8 1    
    16    8    9 1    
    17    8   79 1    
    18    8   80 1    
    19    9   10 ar   
    20    9   14 ar   
    21   10   11 ar   
    22   10   81 1    
    23   11   12 ar   
    24   11   71 1    
    25   12   13 ar   
    26   12   82 1    
    27   13   14 ar   
    28   13   15 1    
    29   14   83 1    
    30   15   16 1    
    31   15   84 1    
    32   15   85 1    
    33   16   17 1    
    34   17   18 1    
    35   17   86 1    
    36   17   87 1    
    37   18   19 1    
    38   18   37 1    
    39   18   88 1    
    40   19   20 am   BACKBONE|DICT|INTERRES
    41   19   89 1    
    42   20   21 2    
    43   20   22 1    
    44   22   23 1    
    45   22   24 1    
    46   22   90 1    
    47   23   91 1    
    48   23   92 1    
    49   23   93 1    
    50   24   25 am   BACKBONE|DICT|INTERRES
    51   24   94 1    
    52   25   26 2    
    53   25   27 1    
    54   27   28 1    
    55   27   29 1    
    56   27   95 1    
    57   28   96 1    
    58   28   97 1    
    59   28   98 1    
    60   29   30 am   BACKBONE|DICT|INTERRES
    61   29   99 1    
    62   30   31 2    
    63   30   32 1    
    64   32   33 1    
    65   32   34 1    
    66   32  100 1    
    67   33  101 1    
    68   33  102 1    
    69   33  103 1    
    70   34   35 am   BACKBONE|DICT|INTERRES
    71   34  104 1    
    72   35   36 2    
    73   37   38 2    
    74   37   39 am   BACKBONE|DICT|INTERRES
    75   39   40 1    
    76   39  105 1    
    77   40   41 1    
    78   40   42 1    
    79   40  106 1    
    80   41  107 1    
    81   41  108 1    
    82   41  109 1    
    83   42   43 2    
    84   42   44 am   BACKBONE|DICT|INTERRES
    85   44   45 1    
    86   44  110 1    
    87   45   46 1    
    88   45   47 1    
    89   45  111 1    
    90   46  112 1    
    91   46  113 1    
    92   46  114 1    
    93   47   48 2    
    94   47   49 am   BACKBONE|DICT|INTERRES
    95   49   50 1    
    96   49  115 1    
    97   50   51 1    
    98   50   52 1    
    99   50  116 1    
   100   51  117 1    
   101   51  118 1    
   102   51  119 1    
   103   52   53 2    
   104   52   54 am   BACKBONE|DICT|INTERRES
   105   54   55 1    
   106   54  120 1    
   107   55   56 1    
   108   55   57 1    
   109   55  121 1    
   110   56  122 1    
   111   56  123 1    
   112   56  124 1    
   113   57   58 2    
   114   57   59 am   BACKBONE|DICT|INTERRES
   115   59   60 1    
   116   59  125 1    
   117   60   61 1    
   118   60   62 1    
   119   60  126 1    
   120   61  127 1    
   121   61  128 1    
   122   61  129 1    
   123   62   63 2    
   124   62   64 am   BACKBONE|DICT|INTERRES
   125   64   65 1    
   126   64  130 1    
   127   65   66 1    
   128   65   69 1    
   129   65  131 1    
   130   66   67 am   BACKBONE|DICT|INTERRES
   131   66   68 2    
   132   67  132 1    
   133   67  133 1    
   134   69   70 1    
   135   69  134 1    
   136   69  135 1    
   137   70   71 1    
   138   71  136 1    
   139   71  137 1    
@<TRIPOS>SUBSTRUCTURE
     1 UNK         1 GROUP             0       ****    0 ROOT    
