@<TRIPOS>MOLECULE
3R136
137   139    1
SMALL
USER_CHARGES


@<TRIPOS>ATOM
      1 CA         26.5996   18.0252    2.1720 C.3       0 UNK        -0.1979 
      2 C          27.1757   19.3014    1.5757 C.2       0 UNK         0.4864 
      3 O          27.0558   20.3645    2.1870 O.2       0 UNK        -0.5359 
      4 N          27.8022   19.1950    0.3938 N.am      1 UNK        -0.4318 
      5 CA         28.3890   20.2899   -0.3924 C.3       1 UNK         0.0824 
      6 C6         29.4686   21.0848    0.4055 C.3       12 UNK        -0.0944 
      7 S7         30.7670   21.8329   -0.6405 S.3       12 UNK        -0.2672 
      8 C8         30.5771   23.6137   -0.2990 C.3       12 UNK         0.0333 
      9 C9         31.1416   24.0066    1.0582 C.ar      12 UNK        -0.0807 
     10 C10        32.5020   24.3026    1.1820 C.ar      12 UNK        -0.0894 
     11 C11        33.0423   24.6628    2.4197 C.ar      12 UNK        -0.0804 
     12 C12        32.2093   24.7238    3.5400 C.ar      12 UNK        -0.0824 
     13 C13        30.8420   24.4568    3.4259 C.ar      12 UNK        -0.0762 
     14 C14        30.3136   24.0948    2.1831 C.ar      12 UNK        -0.0782 
     15 C15        29.9427   24.5386    4.6524 C.3       12 UNK         0.0230 
     16 S16        28.8538   26.0004    4.6289 S.3       12 UNK        -0.2608 
     17 C17        30.0446   27.3918    4.7150 C.3       12 UNK        -0.0989 
     18 CA         29.7846   28.4939    3.6546 C.3       5 UNK         0.0716 
     19 N          29.6338   27.9239    2.3131 N.am      5 UNK        -0.4135 
     20 C          29.4555   28.6006    1.1718 C.2       4 UNK         0.5031 
     21 O          29.4589   29.8272    1.0877 O.2       4 UNK        -0.5229 
     22 CA         29.1279   27.7634   -0.0772 C.3       4 UNK         0.0329 
     23 CB         30.4204   27.3581   -0.8028 C.3       4 UNK        -0.2001 
     24 N          28.3213   26.5653    0.1958 N.am      4 UNK        -0.4303 
     25 C          27.1340   26.5435    0.8234 C.2       3 UNK         0.5044 
     26 O          26.5998   27.5488    1.2922 O.2       3 UNK        -0.5152 
     27 CA         26.4552   25.1679    0.9889 C.3       3 UNK         0.0319 
     28 CB         24.9354   25.2803    1.2344 C.3       3 UNK        -0.2001 
     29 N          26.7470   24.2287   -0.1041 N.am      3 UNK        -0.4354 
     30 C          26.4359   24.3621   -1.4048 C.2       2 UNK         0.4964 
     31 O          25.8125   25.3205   -1.8613 O.2       2 UNK        -0.5047 
     32 CA         26.9319   23.2682   -2.3764 C.3       2 UNK         0.0288 
     33 CB         27.7438   23.8908   -3.5271 C.3       2 UNK        -0.2113 
     34 N          27.7573   22.2357   -1.7399 N.am      2 UNK        -0.4145 
     35 C          27.3050   21.1960   -1.0291 C.2       1 UNK         0.5006 
     36 O          26.1042   20.9538   -0.8831 O.2       1 UNK        -0.5103 
     37 C          28.6211   29.4168    4.0876 C.2       5 UNK         0.5055 
     38 O          28.8564   30.3364    4.8723 O.2       5 UNK        -0.5220 
     39 N          27.4005   29.1746    3.5844 N.am      6 UNK        -0.4450 
     40 CA         26.2310   30.0166    3.8440 C.3       6 UNK         0.0367 
     41 CB         24.9495   29.1792    3.7003 C.3       6 UNK        -0.1929 
     42 C          26.1819   31.2446    2.9192 C.2       6 UNK         0.5070 
     43 O          25.5865   32.2532    3.2993 O.2       6 UNK        -0.5237 
     44 N          26.7971   31.1502    1.7311 N.am      7 UNK        -0.4739 
     45 CA         26.9182   32.2536    0.7764 C.3       7 UNK         0.0276 
     46 CB         27.1476   31.7014   -0.6405 C.3       7 UNK        -0.1927 
     47 C          28.0364   33.2254    1.1839 C.2       7 UNK         0.5013 
     48 O          27.8212   34.4380    1.1524 O.2       7 UNK        -0.5193 
     49 N          29.1925   32.6824    1.5854 N.am      8 UNK        -0.4253 
     50 CA         30.3243   33.4301    2.1226 C.3       8 UNK         0.0242 
     51 CB         31.2098   33.9596    0.9795 C.3       8 UNK        -0.2000 
     52 C          31.1103   32.5019    3.0496 C.2       8 UNK         0.4948 
     53 O          31.5928   31.4622    2.5980 O.2       8 UNK        -0.5275 
     54 N          31.2681   32.8947    4.3194 N.am      9 UNK        -0.4246 
     55 CA         31.9188   32.1117    5.3790 C.3       9 UNK         0.0261 
     56 CB         31.4530   32.6452    6.7473 C.3       9 UNK        -0.1959 
     57 C          33.4591   32.0392    5.2687 C.2       9 UNK         0.5033 
     58 O          34.1473   32.0429    6.2913 O.2       9 UNK        -0.5390 
     59 N          33.9840   31.9433    4.0399 N.am      10 UNK        -0.4215 
     60 CA         35.4118   31.8214    3.7239 C.3       10 UNK         0.0240 
     61 CB         35.6045   31.9425    2.2037 C.3       10 UNK        -0.1982 
     62 C          36.0384   30.5172    4.2483 C.2       10 UNK         0.4970 
     63 O          37.2280   30.5003    4.5664 O.2       10 UNK        -0.4916 
     64 N          35.2170   29.4662    4.3523 N.am      11 UNK        -0.4279 
     65 CA         35.5503   28.1829    4.9835 C.3       11 UNK         0.1003 
     66 C          35.5754   28.2251    6.5418 C.2       11 UNK         0.5709 
     67 N          35.2032   29.3183    7.1996 N.am      11 UNK        -0.7358 
     68 O          35.9540   27.2404    7.1717 O.2       11 UNK        -0.4999 
     69 C69        34.6220   27.0544    4.4628 C.3       12 UNK        -0.0954 
     70 S70        34.8260   26.7674    2.6710 S.3       12 UNK        -0.2268 
     71 C71        34.5264   24.9757    2.5438 C.3       12 UNK         0.0203 
     72 H72        26.7598   17.1624    1.5247 H         1 UNK         0.0888 
     73 H73        27.0660   17.8182    3.1353 H         1 UNK         0.0888 
     74 H74        25.5266   18.1365    2.3287 H         1 UNK         0.0888 
     75 H75        27.8348   18.2895   -0.0542 H         1 UNK         0.3017 
     76 H76        28.8858   19.7918   -1.2267 H         1 UNK         0.0873 
     77 H77        29.0052   21.8353    1.0449 H         1 UNK         0.0745 
     78 H78        29.9896   20.4113    1.0880 H         1 UNK         0.0745 
     79 H79        31.0933   24.1715   -1.0821 H         1 UNK         0.0705 
     80 H80        29.5296   23.8982   -0.3709 H         1 UNK         0.0705 
     81 H81        33.1423   24.2455    0.3122 H         1 UNK         0.1334 
     82 H82        32.6260   24.9885    4.5014 H         1 UNK         0.1417 
     83 H83        29.2584   23.8777    2.1028 H         1 UNK         0.1562 
     84 H84        30.5346   24.5501    5.5690 H         1 UNK         0.0748 
     85 H85        29.3242   23.6414    4.7036 H         1 UNK         0.0748 
     86 H86        31.0568   27.0120    4.5834 H         1 UNK         0.0940 
     87 H87        30.0300   27.8054    5.7258 H         1 UNK         0.0940 
     88 H88        30.6721   29.1285    3.6170 H         1 UNK         0.0703 
     89 H89        29.5948   26.9160    2.2797 H         1 UNK         0.3081 
     90 H90        28.5430   28.3967   -0.7475 H         1 UNK         0.0719 
     91 H91        31.0530   26.7245   -0.1801 H         1 UNK         0.0809 
     92 H92        30.2094   26.8227   -1.7286 H         1 UNK         0.0809 
     93 H93        31.0078   28.2387   -1.0674 H         1 UNK         0.0809 
     94 H94        28.6713   25.6971   -0.1747 H         1 UNK         0.2990 
     95 H95        26.8928   24.7310    1.8876 H         1 UNK         0.0690 
     96 H96        24.4807   24.2982    1.3641 H         1 UNK         0.0788 
     97 H97        24.4270   25.7804    0.4095 H         1 UNK         0.0788 
     98 H98        24.7264   25.8543    2.1382 H         1 UNK         0.0788 
     99 H99        27.2107   23.3752    0.1693 H         1 UNK         0.2993 
    100 H100       26.0443   22.7941   -2.8011 H         1 UNK         0.0949 
    101 H101       28.0628   23.1327   -4.2429 H         1 UNK         0.0767 
    102 H102       27.1497   24.6202   -4.0797 H         1 UNK         0.0767 
    103 H103       28.6341   24.4050   -3.1628 H         1 UNK         0.0767 
    104 H104       28.7597   22.3342   -1.8362 H         1 UNK         0.3013 
    105 H105       27.2719   28.4222    2.9134 H         1 UNK         0.3121 
    106 H106       26.2772   30.3788    4.8736 H         1 UNK         0.0774 
    107 H107       24.7946   28.8441    2.6744 H         1 UNK         0.0815 
    108 H108       24.0728   29.7626    3.9843 H         1 UNK         0.0815 
    109 H109       24.9750   28.2983    4.3419 H         1 UNK         0.0815 
    110 H110       27.3045   30.3024    1.5132 H         1 UNK         0.2987 
    111 H111       25.9787   32.8115    0.7678 H         1 UNK         0.0949 
    112 H112       28.0874   31.1552   -0.7222 H         1 UNK         0.0806 
    113 H113       26.3427   31.0294   -0.9391 H         1 UNK         0.0806 
    114 H114       27.1807   32.5116   -1.3700 H         1 UNK         0.0806 
    115 H115       29.3092   31.6694    1.5544 H         1 UNK         0.3010 
    116 H116       29.9526   34.2772    2.7038 H         1 UNK         0.0829 
    117 H117       30.6626   34.6543    0.3420 H         1 UNK         0.0813 
    118 H118       32.0770   34.4927    1.3715 H         1 UNK         0.0813 
    119 H119       31.5800   33.1490    0.3499 H         1 UNK         0.0813 
    120 H120       30.8800   33.7835    4.6020 H         1 UNK         0.3038 
    121 H121       31.5617   31.0827    5.2957 H         1 UNK         0.0769 
    122 H122       31.7898   33.6688    6.9166 H         1 UNK         0.0811 
    123 H123       31.8417   32.0336    7.5628 H         1 UNK         0.0811 
    124 H124       30.3657   32.6280    6.8291 H         1 UNK         0.0811 
    125 H125       33.3254   31.8700    3.2679 H         1 UNK         0.3204 
    126 H126       35.9319   32.6520    4.2057 H         1 UNK         0.0748 
    127 H127       36.6605   31.8775    1.9372 H         1 UNK         0.0771 
    128 H128       35.0821   31.1497    1.6662 H         1 UNK         0.0771 
    129 H129       35.2356   32.8988    1.8322 H         1 UNK         0.0771 
    130 H130       34.2620   29.5728    4.0473 H         1 UNK         0.2980 
    131 H131       36.5700   27.9282    4.6884 H         1 UNK         0.0545 
    132 H132       34.9099   30.1584    6.7161 H         1 UNK         0.3459 
    133 H133       35.2371   29.3130    8.2064 H         1 UNK         0.3459 
    134 H134       33.5767   27.2936    4.6635 H         1 UNK         0.0616 
    135 H135       34.8316   26.1216    4.9886 H         1 UNK         0.0616 
    136 H136       34.9524   24.4534    3.4011 H         1 UNK         0.0634 
    137 H137       35.0622   24.6019    1.6702 H         1 UNK         0.0634 
@<TRIPOS>BOND
     1    1    2 1    
     2    1   72 1    
     3    1   73 1    
     4    1   74 1    
     5    2    3 2    
     6    2    4 am   BACKBONE|DICT|INTERRES
     7    4    5 1    
     8    4   75 1    
     9    5    6 1    
    10    5   35 1    
    11    5   76 1    
    12    6    7 1    
    13    6   77 1    
    14    6   78 1    
    15    7    8 1    
    16    8    9 1    
    17    8   79 1    
    18    8   80 1    
    19    9   10 ar   
    20    9   14 ar   
    21   10   11 ar   
    22   10   81 1    
    23   11   12 ar   
    24   11   71 1    
    25   12   13 ar   
    26   12   82 1    
    27   13   14 ar   
    28   13   15 1    
    29   14   83 1    
    30   15   16 1    
    31   15   84 1    
    32   15   85 1    
    33   16   17 1    
    34   17   18 1    
    35   17   86 1    
    36   17   87 1    
    37   18   19 1    
    38   18   37 1    
    39   18   88 1    
    40   19   20 am   BACKBONE|DICT|INTERRES
    41   19   89 1    
    42   20   21 2    
    43   20   22 1    
    44   22   23 1    
    45   22   24 1    
    46   22   90 1    
    47   23   91 1    
    48   23   92 1    
    49   23   93 1    
    50   24   25 am   BACKBONE|DICT|INTERRES
    51   24   94 1    
    52   25   26 2    
    53   25   27 1    
    54   27   28 1    
    55   27   29 1    
    56   27   95 1    
    57   28   96 1    
    58   28   97 1    
    59   28   98 1    
    60   29   30 am   BACKBONE|DICT|INTERRES
    61   29   99 1    
    62   30   31 2    
    63   30   32 1    
    64   32   33 1    
    65   32   34 1    
    66   32  100 1    
    67   33  101 1    
    68   33  102 1    
    69   33  103 1    
    70   34   35 am   BACKBONE|DICT|INTERRES
    71   34  104 1    
    72   35   36 2    
    73   37   38 2    
    74   37   39 am   BACKBONE|DICT|INTERRES
    75   39   40 1    
    76   39  105 1    
    77   40   41 1    
    78   40   42 1    
    79   40  106 1    
    80   41  107 1    
    81   41  108 1    
    82   41  109 1    
    83   42   43 2    
    84   42   44 am   BACKBONE|DICT|INTERRES
    85   44   45 1    
    86   44  110 1    
    87   45   46 1    
    88   45   47 1    
    89   45  111 1    
    90   46  112 1    
    91   46  113 1    
    92   46  114 1    
    93   47   48 2    
    94   47   49 am   BACKBONE|DICT|INTERRES
    95   49   50 1    
    96   49  115 1    
    97   50   51 1    
    98   50   52 1    
    99   50  116 1    
   100   51  117 1    
   101   51  118 1    
   102   51  119 1    
   103   52   53 2    
   104   52   54 am   BACKBONE|DICT|INTERRES
   105   54   55 1    
   106   54  120 1    
   107   55   56 1    
   108   55   57 1    
   109   55  121 1    
   110   56  122 1    
   111   56  123 1    
   112   56  124 1    
   113   57   58 2    
   114   57   59 am   BACKBONE|DICT|INTERRES
   115   59   60 1    
   116   59  125 1    
   117   60   61 1    
   118   60   62 1    
   119   60  126 1    
   120   61  127 1    
   121   61  128 1    
   122   61  129 1    
   123   62   63 2    
   124   62   64 am   BACKBONE|DICT|INTERRES
   125   64   65 1    
   126   64  130 1    
   127   65   66 1    
   128   65   69 1    
   129   65  131 1    
   130   66   67 am   BACKBONE|DICT|INTERRES
   131   66   68 2    
   132   67  132 1    
   133   67  133 1    
   134   69   70 1    
   135   69  134 1    
   136   69  135 1    
   137   70   71 1    
   138   71  136 1    
   139   71  137 1    
@<TRIPOS>SUBSTRUCTURE
     1 UNK         1 GROUP             0       ****    0 ROOT    
