@<TRIPOS>MOLECULE
3R136
137   139    1
SMALL
USER_CHARGES


@<TRIPOS>ATOM
      1 CA         30.0381   22.5259   -5.3479 C.3       0 UNK        -0.1979 
      2 C          29.7513   23.2900   -4.0641 C.2       0 UNK         0.4864 
      3 O          29.9669   24.5021   -4.0103 O.2       0 UNK        -0.5359 
      4 N          29.2541   22.5981   -3.0299 N.am      1 UNK        -0.4318 
      5 CA         28.9112   23.1528   -1.7147 C.3       1 UNK         0.0824 
      6 C6         29.0085   22.0577   -0.6177 C.3       12 UNK        -0.0944 
      7 S7         29.2732   22.7643    1.0402 S.3       12 UNK        -0.2672 
      8 C8         31.0755   22.6224    1.2194 C.3       12 UNK         0.0333 
      9 C9         31.5861   23.4718    2.3751 C.ar      12 UNK        -0.0807 
     10 C10        32.3299   24.6295    2.1214 C.ar      12 UNK        -0.0894 
     11 C11        32.8349   25.3941    3.1772 C.ar      12 UNK        -0.0804 
     12 C12        32.5890   24.9955    4.4922 C.ar      12 UNK        -0.0824 
     13 C13        31.8126   23.8652    4.7610 C.ar      12 UNK        -0.0762 
     14 C14        31.3250   23.0971    3.6982 C.ar      12 UNK        -0.0782 
     15 C15        31.4940   23.4960    6.2025 C.3       12 UNK         0.0230 
     16 S16        30.5595   24.8187    7.0430 S.3       12 UNK        -0.2608 
     17 C17        28.8915   24.6411    6.3230 C.3       12 UNK        -0.0989 
     18 CA         28.6635   25.4593    5.0218 C.3       5 UNK         0.0716 
     19 N          27.5399   24.8949    4.2623 N.am      5 UNK        -0.4135 
     20 C          27.3022   25.0530    2.9532 C.2       4 UNK         0.5031 
     21 O          28.0185   25.7356    2.2171 O.2       4 UNK        -0.5229 
     22 CA         26.0699   24.3367    2.3631 C.3       4 UNK         0.0329 
     23 CB         25.0523   23.8434    3.4182 C.3       4 UNK        -0.2001 
     24 N          25.4056   25.1471    1.3375 N.am      4 UNK        -0.4303 
     25 C          24.8482   26.3591    1.4962 C.2       3 UNK         0.5044 
     26 O          24.7723   26.9394    2.5808 O.2       3 UNK        -0.5152 
     27 CA         24.2330   27.0229    0.2435 C.3       3 UNK         0.0319 
     28 CB         24.3400   28.5639    0.2802 C.3       3 UNK        -0.2001 
     29 N          24.7343   26.4778   -1.0277 N.am      3 UNK        -0.4354 
     30 C          25.9848   26.5681   -1.5026 C.2       2 UNK         0.4964 
     31 O          26.8857   27.2179   -0.9742 O.2       2 UNK        -0.5047 
     32 CA         26.2876   25.7779   -2.7849 C.3       2 UNK         0.0288 
     33 CB         26.5257   26.7261   -3.9714 C.3       2 UNK        -0.2113 
     34 N          27.4616   24.9229   -2.6061 N.am      2 UNK        -0.4145 
     35 C          27.5482   23.8887   -1.7578 C.2       1 UNK         0.5006 
     36 O          26.5989   23.5009   -1.0709 O.2       1 UNK        -0.5103 
     37 C          28.5167   26.9888    5.2354 C.2       5 UNK         0.5055 
     38 O          28.5628   27.4766    6.3656 O.2       5 UNK        -0.5220 
     39 N          28.3167   27.7120    4.1298 N.am      6 UNK        -0.4450 
     40 CA         28.1427   29.1583    4.0200 C.3       6 UNK         0.0367 
     41 CB         26.7587   29.5759    4.5605 C.3       6 UNK        -0.1929 
     42 C          28.3573   29.6041    2.5604 C.2       6 UNK         0.5070 
     43 O          27.7806   30.6081    2.1402 O.2       6 UNK        -0.5237 
     44 N          29.1636   28.8479    1.7981 N.am      7 UNK        -0.4739 
     45 CA         29.4193   29.0715    0.3697 C.3       7 UNK         0.0276 
     46 CB         30.0982   27.8226   -0.2191 C.3       7 UNK        -0.1927 
     47 C          30.2544   30.3314    0.0774 C.2       7 UNK         0.5013 
     48 O          30.1721   30.8732   -1.0258 O.2       7 UNK        -0.5193 
     49 N          31.0320   30.7746    1.0681 N.am      8 UNK        -0.4253 
     50 CA         31.8510   31.9786    1.0723 C.3       8 UNK         0.0242 
     51 CB         33.1986   31.6908    0.3839 C.3       8 UNK        -0.2000 
     52 C          32.0554   32.3886    2.5344 C.2       8 UNK         0.4948 
     53 O          31.8001   31.5830    3.4339 O.2       8 UNK        -0.5275 
     54 N          32.5666   33.6073    2.7575 N.am      9 UNK        -0.4246 
     55 CA         32.9054   34.1339    4.0886 C.3       9 UNK         0.0261 
     56 CB         33.3824   35.5894    3.9597 C.3       9 UNK        -0.1959 
     57 C          33.9505   33.2870    4.8416 C.2       9 UNK         0.5033 
     58 O          33.8973   33.2044    6.0695 O.2       9 UNK        -0.5390 
     59 N          34.8436   32.6309    4.0867 N.am      10 UNK        -0.4215 
     60 CA         35.8299   31.6652    4.5757 C.3       10 UNK         0.0240 
     61 CB         36.7797   31.2972    3.4236 C.3       10 UNK        -0.1982 
     62 C          35.2171   30.3908    5.1895 C.2       10 UNK         0.4970 
     63 O          35.9019   29.7251    5.9674 O.2       10 UNK        -0.4916 
     64 N          33.9617   30.0688    4.8452 N.am      11 UNK        -0.4279 
     65 CA         33.2125   28.9393    5.4159 C.3       11 UNK         0.1003 
     66 C          32.6657   29.2098    6.8481 C.2       11 UNK         0.5709 
     67 N          32.6907   30.4385    7.3555 N.am      11 UNK        -0.7358 
     68 O          32.2308   28.2807    7.5222 O.2       11 UNK        -0.4999 
     69 C69        32.0843   28.4407    4.4711 C.3       12 UNK        -0.0954 
     70 S70        32.6237   28.1332    2.7525 S.3       12 UNK        -0.2268 
     71 C71        33.6582   26.6425    2.9009 C.3       12 UNK         0.0203 
     72 H72        29.8022   21.4661   -5.2534 H         1 UNK         0.0888 
     73 H73        29.4464   22.9338   -6.1670 H         1 UNK         0.0888 
     74 H74        31.0918   22.6165   -5.6101 H         1 UNK         0.0888 
     75 H75        29.0635   21.6128   -3.1471 H         1 UNK         0.3017 
     76 H76        29.6606   23.9130   -1.4801 H         1 UNK         0.0873 
     77 H77        28.1185   21.4259   -0.6015 H         1 UNK         0.0745 
     78 H78        29.8399   21.3827   -0.8283 H         1 UNK         0.0745 
     79 H79        31.3423   21.5774    1.3834 H         1 UNK         0.0705 
     80 H80        31.5549   22.9231    0.2863 H         1 UNK         0.0705 
     81 H81        32.5236   24.9339    1.1019 H         1 UNK         0.1334 
     82 H82        32.9753   25.5836    5.3136 H         1 UNK         0.1417 
     83 H83        30.7318   22.2143    3.8949 H         1 UNK         0.1562 
     84 H84        32.4301   23.3331    6.7384 H         1 UNK         0.0748 
     85 H85        30.9398   22.5580    6.2609 H         1 UNK         0.0748 
     86 H86        28.1542   24.9106    7.0817 H         1 UNK         0.0940 
     87 H87        28.7331   23.5787    6.1304 H         1 UNK         0.0940 
     88 H88        29.5481   25.3365    4.3952 H         1 UNK         0.0703 
     89 H89        26.8746   24.3562    4.7964 H         1 UNK         0.3081 
     90 H90        26.4533   23.4586    1.8425 H         1 UNK         0.0719 
     91 H91        24.6842   24.6562    4.0457 H         1 UNK         0.0809 
     92 H92        24.1883   23.3818    2.9400 H         1 UNK         0.0809 
     93 H93        25.4889   23.0865    4.0707 H         1 UNK         0.0809 
     94 H94        25.4790   24.7784    0.3970 H         1 UNK         0.2990 
     95 H95        23.1715   26.7729    0.2721 H         1 UNK         0.0690 
     96 H96        23.9194   29.0147   -0.6185 H         1 UNK         0.0788 
     97 H97        25.3743   28.8976    0.3733 H         1 UNK         0.0788 
     98 H98        23.7950   28.9725    1.1319 H         1 UNK         0.0788 
     99 H99        24.0692   25.9184   -1.5448 H         1 UNK         0.2993 
    100 H100       25.4382   25.1335   -3.0216 H         1 UNK         0.0949 
    101 H101       25.6577   27.3647   -4.1408 H         1 UNK         0.0767 
    102 H102       27.3829   27.3788   -3.7991 H         1 UNK         0.0767 
    103 H103       26.7061   26.1719   -4.8928 H         1 UNK         0.0767 
    104 H104       28.2908   25.1538   -3.1447 H         1 UNK         0.3013 
    105 H105       28.2273   27.1892    3.2572 H         1 UNK         0.3121 
    106 H106       28.9133   29.6463    4.6195 H         1 UNK         0.0774 
    107 H107       26.6268   30.6574    4.5128 H         1 UNK         0.0815 
    108 H108       25.9533   29.1210    3.9824 H         1 UNK         0.0815 
    109 H109       26.6279   29.2859    5.6027 H         1 UNK         0.0815 
    110 H110       29.6264   28.0510    2.2116 H         1 UNK         0.2987 
    111 H111       28.4543   29.2021   -0.1246 H         1 UNK         0.0949 
    112 H112       31.0823   27.6495    0.2166 H         1 UNK         0.0806 
    113 H113       29.4953   26.9289   -0.0526 H         1 UNK         0.0806 
    114 H114       30.2303   27.9247   -1.2969 H         1 UNK         0.0806 
    115 H115       31.0127   30.2927    1.9596 H         1 UNK         0.3010 
    116 H116       31.3226   32.7806    0.5527 H         1 UNK         0.0829 
    117 H117       33.0558   31.3764   -0.6501 H         1 UNK         0.0813 
    118 H118       33.8329   32.5776    0.3636 H         1 UNK         0.0813 
    119 H119       33.7506   30.9017    0.8971 H         1 UNK         0.0813 
    120 H120       32.7480   34.2134    1.9696 H         1 UNK         0.3038 
    121 H121       31.9915   34.1247    4.6866 H         1 UNK         0.0769 
    122 H122       34.2802   35.6690    3.3455 H         1 UNK         0.0811 
    123 H123       33.6191   36.0099    4.9383 H         1 UNK         0.0811 
    124 H124       32.6133   36.2221    3.5161 H         1 UNK         0.0811 
    125 H125       34.8061   32.7705    3.0880 H         1 UNK         0.3204 
    126 H126       36.4118   32.1544    5.3596 H         1 UNK         0.0748 
    127 H127       37.2888   32.1775    3.0304 H         1 UNK         0.0771 
    128 H128       37.5518   30.6035    3.7601 H         1 UNK         0.0771 
    129 H129       36.2485   30.8180    2.6000 H         1 UNK         0.0771 
    130 H130       33.4300   30.6726    4.2284 H         1 UNK         0.2980 
    131 H131       33.9140   28.1121    5.5328 H         1 UNK         0.0545 
    132 H132       32.3404   30.5911    8.2876 H         1 UNK         0.3459 
    133 H133       33.0617   31.2138    6.8232 H         1 UNK         0.3459 
    134 H134       31.2858   29.1817    4.4289 H         1 UNK         0.0616 
    135 H135       31.6192   27.5365    4.8640 H         1 UNK         0.0616 
    136 H136       34.2118   26.5156    1.9695 H         1 UNK         0.0634 
    137 H137       34.4105   26.7870    3.6768 H         1 UNK         0.0634 
@<TRIPOS>BOND
     1    1    2 1    
     2    1   72 1    
     3    1   73 1    
     4    1   74 1    
     5    2    3 2    
     6    2    4 am   BACKBONE|DICT|INTERRES
     7    4    5 1    
     8    4   75 1    
     9    5    6 1    
    10    5   35 1    
    11    5   76 1    
    12    6    7 1    
    13    6   77 1    
    14    6   78 1    
    15    7    8 1    
    16    8    9 1    
    17    8   79 1    
    18    8   80 1    
    19    9   10 ar   
    20    9   14 ar   
    21   10   11 ar   
    22   10   81 1    
    23   11   12 ar   
    24   11   71 1    
    25   12   13 ar   
    26   12   82 1    
    27   13   14 ar   
    28   13   15 1    
    29   14   83 1    
    30   15   16 1    
    31   15   84 1    
    32   15   85 1    
    33   16   17 1    
    34   17   18 1    
    35   17   86 1    
    36   17   87 1    
    37   18   19 1    
    38   18   37 1    
    39   18   88 1    
    40   19   20 am   BACKBONE|DICT|INTERRES
    41   19   89 1    
    42   20   21 2    
    43   20   22 1    
    44   22   23 1    
    45   22   24 1    
    46   22   90 1    
    47   23   91 1    
    48   23   92 1    
    49   23   93 1    
    50   24   25 am   BACKBONE|DICT|INTERRES
    51   24   94 1    
    52   25   26 2    
    53   25   27 1    
    54   27   28 1    
    55   27   29 1    
    56   27   95 1    
    57   28   96 1    
    58   28   97 1    
    59   28   98 1    
    60   29   30 am   BACKBONE|DICT|INTERRES
    61   29   99 1    
    62   30   31 2    
    63   30   32 1    
    64   32   33 1    
    65   32   34 1    
    66   32  100 1    
    67   33  101 1    
    68   33  102 1    
    69   33  103 1    
    70   34   35 am   BACKBONE|DICT|INTERRES
    71   34  104 1    
    72   35   36 2    
    73   37   38 2    
    74   37   39 am   BACKBONE|DICT|INTERRES
    75   39   40 1    
    76   39  105 1    
    77   40   41 1    
    78   40   42 1    
    79   40  106 1    
    80   41  107 1    
    81   41  108 1    
    82   41  109 1    
    83   42   43 2    
    84   42   44 am   BACKBONE|DICT|INTERRES
    85   44   45 1    
    86   44  110 1    
    87   45   46 1    
    88   45   47 1    
    89   45  111 1    
    90   46  112 1    
    91   46  113 1    
    92   46  114 1    
    93   47   48 2    
    94   47   49 am   BACKBONE|DICT|INTERRES
    95   49   50 1    
    96   49  115 1    
    97   50   51 1    
    98   50   52 1    
    99   50  116 1    
   100   51  117 1    
   101   51  118 1    
   102   51  119 1    
   103   52   53 2    
   104   52   54 am   BACKBONE|DICT|INTERRES
   105   54   55 1    
   106   54  120 1    
   107   55   56 1    
   108   55   57 1    
   109   55  121 1    
   110   56  122 1    
   111   56  123 1    
   112   56  124 1    
   113   57   58 2    
   114   57   59 am   BACKBONE|DICT|INTERRES
   115   59   60 1    
   116   59  125 1    
   117   60   61 1    
   118   60   62 1    
   119   60  126 1    
   120   61  127 1    
   121   61  128 1    
   122   61  129 1    
   123   62   63 2    
   124   62   64 am   BACKBONE|DICT|INTERRES
   125   64   65 1    
   126   64  130 1    
   127   65   66 1    
   128   65   69 1    
   129   65  131 1    
   130   66   67 am   BACKBONE|DICT|INTERRES
   131   66   68 2    
   132   67  132 1    
   133   67  133 1    
   134   69   70 1    
   135   69  134 1    
   136   69  135 1    
   137   70   71 1    
   138   71  136 1    
   139   71  137 1    
@<TRIPOS>SUBSTRUCTURE
     1 UNK         1 GROUP             0       ****    0 ROOT    
