@<TRIPOS>MOLECULE
3R136
137   139    1
SMALL
USER_CHARGES


@<TRIPOS>ATOM
      1 CA         28.7862   22.6271   -2.8482 C.3       0 UNK        -0.1979 
      2 C          29.5002   22.9281   -1.5388 C.2       0 UNK         0.4864 
      3 O          30.7280   22.8883   -1.4938 O.2       0 UNK        -0.5359 
      4 N          28.7341   23.2340   -0.4879 N.am      1 UNK        -0.4318 
      5 CA         29.1606   23.6450    0.8504 C.3       1 UNK         0.0824 
      6 C6         29.8713   22.5136    1.6497 C.3       12 UNK        -0.0944 
      7 S7         30.6987   23.0800    3.1816 S.3       12 UNK        -0.2672 
      8 C8         32.4457   23.2218    2.6874 C.3       12 UNK         0.0333 
      9 C9         32.7497   24.5743    2.0593 C.ar      12 UNK        -0.0807 
     10 C10        33.2236   25.6283    2.8449 C.ar      12 UNK        -0.0894 
     11 C11        33.5385   26.8658    2.2688 C.ar      12 UNK        -0.0804 
     12 C12        33.3359   27.0479    0.8962 C.ar      12 UNK        -0.0824 
     13 C13        32.8419   26.0076    0.1015 C.ar      12 UNK        -0.0762 
     14 C14        32.5765   24.7682    0.6884 C.ar      12 UNK        -0.0782 
     15 C15        32.6210   26.2034   -1.3943 C.3       12 UNK         0.0230 
     16 S16        31.5222   27.6074   -1.7767 S.3       12 UNK        -0.2608 
     17 C17        29.9171   27.0645   -1.0896 C.3       12 UNK        -0.0989 
     18 CA         28.6929   27.7155   -1.7896 C.3       5 UNK         0.0716 
     19 N          27.4475   27.0484   -1.3980 N.am      5 UNK        -0.4135 
     20 C          26.2778   27.1769   -2.0424 C.2       4 UNK         0.5031 
     21 O          26.1582   27.7075   -3.1480 O.2       4 UNK        -0.5229 
     22 CA         25.0245   26.6470   -1.3266 C.3       4 UNK         0.0329 
     23 CB         24.7638   25.1804   -1.7082 C.3       4 UNK        -0.2001 
     24 N          25.1491   26.7585    0.1288 N.am      4 UNK        -0.4303 
     25 C          24.8214   27.8409    0.8528 C.2       3 UNK         0.5044 
     26 O          24.2887   28.8415    0.3707 O.2       3 UNK        -0.5152 
     27 CA         25.1177   27.7975    2.3675 C.3       3 UNK         0.0319 
     28 CB         23.9989   28.4454    3.2036 C.3       3 UNK        -0.2001 
     29 N          25.3236   26.4211    2.8191 N.am      3 UNK        -0.4354 
     30 C          26.3610   25.9823    3.5400 C.2       2 UNK         0.4964 
     31 O          27.1869   26.7128    4.0879 O.2       2 UNK        -0.5047 
     32 CA         26.5463   24.4554    3.6225 C.3       2 UNK         0.0288 
     33 CB         25.2857   23.6433    3.2425 C.3       2 UNK        -0.2113 
     34 N          27.6935   24.0176    2.8146 N.am      2 UNK        -0.4145 
     35 C          27.9003   24.2435    1.5080 C.2       1 UNK         0.5006 
     36 O          27.1225   24.8883    0.7972 O.2       1 UNK        -0.5103 
     37 C          28.5822   29.2382   -1.5236 C.2       5 UNK         0.5055 
     38 O          27.7636   29.6695   -0.7070 O.2       5 UNK        -0.5220 
     39 N          29.4131   30.0269   -2.2206 N.am      6 UNK        -0.4450 
     40 CA         29.4856   31.4900   -2.1205 C.3       6 UNK         0.0367 
     41 CB         30.4395   32.0228   -3.2017 C.3       6 UNK        -0.1929 
     42 C          29.9053   32.0081   -0.7312 C.2       6 UNK         0.5070 
     43 O          29.5485   33.1322   -0.3766 O.2       6 UNK        -0.5237 
     44 N          30.6306   31.1816    0.0292 N.am      7 UNK        -0.4739 
     45 CA         30.8988   31.3659    1.4516 C.3       7 UNK         0.0276 
     46 CB         32.4142   31.2757    1.6970 C.3       7 UNK        -0.1927 
     47 C          30.1704   30.2497    2.2081 C.2       7 UNK         0.5013 
     48 O          30.1334   29.1177    1.7217 O.2       7 UNK        -0.5193 
     49 N          29.6300   30.5717    3.3899 N.am      8 UNK        -0.4253 
     50 CA         29.0330   29.5904    4.2998 C.3       8 UNK         0.0242 
     51 CB         28.2780   30.3249    5.4188 C.3       8 UNK        -0.2000 
     52 C          30.1115   28.6673    4.8897 C.2       8 UNK         0.4948 
     53 O          31.2431   29.1182    5.0673 O.2       8 UNK        -0.5275 
     54 N          29.7312   27.4225    5.2082 N.am      9 UNK        -0.4246 
     55 CA         30.5843   26.2842    5.5921 C.3       9 UNK         0.0261 
     56 CB         29.6854   25.1397    6.0857 C.3       9 UNK        -0.1959 
     57 C          31.7164   26.5259    6.6131 C.2       9 UNK         0.5033 
     58 O          32.6958   25.7793    6.5974 O.2       9 UNK        -0.5390 
     59 N          31.5767   27.5364    7.4812 N.am      10 UNK        -0.4215 
     60 CA         32.6159   27.9798    8.4164 C.3       10 UNK         0.0240 
     61 CB         31.9779   28.8969    9.4730 C.3       10 UNK        -0.1982 
     62 C          33.8034   28.6918    7.7341 C.2       10 UNK         0.4970 
     63 O          34.8852   28.7361    8.3210 O.2       10 UNK        -0.4916 
     64 N          33.5792   29.2454    6.5341 N.am      11 UNK        -0.4279 
     65 CA         34.5391   29.9879    5.6995 C.3       11 UNK         0.1003 
     66 C          35.0210   31.3432    6.3013 C.2       11 UNK         0.5709 
     67 N          34.3327   31.9114    7.2847 N.am      11 UNK        -0.7358 
     68 O          36.0138   31.9108    5.8510 O.2       11 UNK        -0.4999 
     69 C69        35.7141   29.1121    5.1686 C.3       12 UNK        -0.0954 
     70 S70        35.2319   27.5182    4.4158 S.3       12 UNK        -0.2268 
     71 C71        34.0588   28.0271    3.1127 C.3       12 UNK         0.0203 
     72 H72        29.0912   23.3416   -3.6128 H         1 UNK         0.0888 
     73 H73        29.0438   21.6260   -3.1939 H         1 UNK         0.0888 
     74 H74        27.7021   22.6824   -2.7457 H         1 UNK         0.0888 
     75 H75        27.7311   23.2981   -0.6088 H         1 UNK         0.3017 
     76 H76        29.8552   24.4762    0.7304 H         1 UNK         0.0873 
     77 H77        29.1612   21.7255    1.9067 H         1 UNK         0.0745 
     78 H78        30.6203   22.0272    1.0245 H         1 UNK         0.0745 
     79 H79        32.7148   22.4125    2.0071 H         1 UNK         0.0705 
     80 H80        33.0654   23.0841    3.5749 H         1 UNK         0.0705 
     81 H81        33.3559   25.4794    3.9079 H         1 UNK         0.1334 
     82 H82        33.5538   28.0044    0.4414 H         1 UNK         0.1417 
     83 H83        32.2282   23.9475    0.0810 H         1 UNK         0.1562 
     84 H84        32.2131   25.3010   -1.8529 H         1 UNK         0.0748 
     85 H85        33.5875   26.3773   -1.8691 H         1 UNK         0.0748 
     86 H86        29.9041   27.2481   -0.0145 H         1 UNK         0.0940 
     87 H87        29.8619   25.9821   -1.2083 H         1 UNK         0.0940 
     88 H88        28.8073   27.5755   -2.8669 H         1 UNK         0.0703 
     89 H89        27.4421   26.5935   -0.4947 H         1 UNK         0.3081 
     90 H90        24.1711   27.2406   -1.6615 H         1 UNK         0.0719 
     91 H91        25.5888   24.5300   -1.4166 H         1 UNK         0.0809 
     92 H92        23.8570   24.8037   -1.2350 H         1 UNK         0.0809 
     93 H93        24.6335   25.0769   -2.7863 H         1 UNK         0.0809 
     94 H94        25.6662   26.0090    0.5822 H         1 UNK         0.2990 
     95 H95        26.0334   28.3753    2.5107 H         1 UNK         0.0690 
     96 H96        23.0456   27.9347    3.0632 H         1 UNK         0.0788 
     97 H97        23.8557   29.4910    2.9280 H         1 UNK         0.0788 
     98 H98        24.2385   28.4234    4.2668 H         1 UNK         0.0788 
     99 H99        24.6938   25.7320    2.4320 H         1 UNK         0.2993 
    100 H100       26.7793   24.2306    4.6641 H         1 UNK         0.0949 
    101 H101       25.0161   23.7526    2.1913 H         1 UNK         0.0767 
    102 H102       25.4427   22.5803    3.4263 H         1 UNK         0.0767 
    103 H103       24.4258   23.9439    3.8429 H         1 UNK         0.0767 
    104 H104       28.4217   23.5191    3.3113 H         1 UNK         0.3013 
    105 H105       30.0764   29.5851   -2.8422 H         1 UNK         0.3121 
    106 H106       28.4864   31.8819   -2.3217 H         1 UNK         0.0774 
    107 H107       30.4942   33.1120   -3.1711 H         1 UNK         0.0815 
    108 H108       31.4530   31.6423   -3.0681 H         1 UNK         0.0815 
    109 H109       30.1038   31.7458   -4.2010 H         1 UNK         0.0815 
    110 H110       30.8039   30.2480   -0.3192 H         1 UNK         0.2987 
    111 H111       30.5352   32.3356    1.7989 H         1 UNK         0.0949 
    112 H112       32.8182   30.3180    1.3674 H         1 UNK         0.0806 
    113 H113       32.9483   32.0645    1.1673 H         1 UNK         0.0806 
    114 H114       32.6453   31.3799    2.7580 H         1 UNK         0.0806 
    115 H115       29.7394   31.5105    3.7437 H         1 UNK         0.3010 
    116 H116       28.3235   28.9908    3.7273 H         1 UNK         0.0829 
    117 H117       27.7887   29.6161    6.0883 H         1 UNK         0.0813 
    118 H118       28.9476   30.9378    6.0239 H         1 UNK         0.0813 
    119 H119       27.5007   30.9731    5.0139 H         1 UNK         0.0813 
    120 H120       28.7684   27.1775    4.9834 H         1 UNK         0.3038 
    121 H121       31.0670   25.9534    4.6718 H         1 UNK         0.0769 
    122 H122       30.2758   24.2642    6.3607 H         1 UNK         0.0811 
    123 H123       28.9928   24.8226    5.3093 H         1 UNK         0.0811 
    124 H124       29.1030   25.4323    6.9600 H         1 UNK         0.0811 
    125 H125       30.7459   28.1058    7.4124 H         1 UNK         0.3204 
    126 H126       33.0140   27.0990    8.9246 H         1 UNK         0.0748 
    127 H127       32.7192   29.2282   10.2018 H         1 UNK         0.0771 
    128 H128       31.5408   29.7894    9.0234 H         1 UNK         0.0771 
    129 H129       31.1931   28.3796   10.0253 H         1 UNK         0.0771 
    130 H130       32.6536   29.1504    6.1169 H         1 UNK         0.2980 
    131 H131       33.9596   30.2979    4.8307 H         1 UNK         0.0545 
    132 H132       34.6445   32.7928    7.6607 H         1 UNK         0.3459 
    133 H133       33.5093   31.4653    7.6543 H         1 UNK         0.3459 
    134 H134       36.2868   29.6632    4.4208 H         1 UNK         0.0616 
    135 H135       36.4110   28.8934    5.9791 H         1 UNK         0.0616 
    136 H136       34.5515   28.7662    2.4793 H         1 UNK         0.0634 
    137 H137       33.2006   28.5203    3.5636 H         1 UNK         0.0634 
@<TRIPOS>BOND
     1    1    2 1    
     2    1   72 1    
     3    1   73 1    
     4    1   74 1    
     5    2    3 2    
     6    2    4 am   BACKBONE|DICT|INTERRES
     7    4    5 1    
     8    4   75 1    
     9    5    6 1    
    10    5   35 1    
    11    5   76 1    
    12    6    7 1    
    13    6   77 1    
    14    6   78 1    
    15    7    8 1    
    16    8    9 1    
    17    8   79 1    
    18    8   80 1    
    19    9   10 ar   
    20    9   14 ar   
    21   10   11 ar   
    22   10   81 1    
    23   11   12 ar   
    24   11   71 1    
    25   12   13 ar   
    26   12   82 1    
    27   13   14 ar   
    28   13   15 1    
    29   14   83 1    
    30   15   16 1    
    31   15   84 1    
    32   15   85 1    
    33   16   17 1    
    34   17   18 1    
    35   17   86 1    
    36   17   87 1    
    37   18   19 1    
    38   18   37 1    
    39   18   88 1    
    40   19   20 am   BACKBONE|DICT|INTERRES
    41   19   89 1    
    42   20   21 2    
    43   20   22 1    
    44   22   23 1    
    45   22   24 1    
    46   22   90 1    
    47   23   91 1    
    48   23   92 1    
    49   23   93 1    
    50   24   25 am   BACKBONE|DICT|INTERRES
    51   24   94 1    
    52   25   26 2    
    53   25   27 1    
    54   27   28 1    
    55   27   29 1    
    56   27   95 1    
    57   28   96 1    
    58   28   97 1    
    59   28   98 1    
    60   29   30 am   BACKBONE|DICT|INTERRES
    61   29   99 1    
    62   30   31 2    
    63   30   32 1    
    64   32   33 1    
    65   32   34 1    
    66   32  100 1    
    67   33  101 1    
    68   33  102 1    
    69   33  103 1    
    70   34   35 am   BACKBONE|DICT|INTERRES
    71   34  104 1    
    72   35   36 2    
    73   37   38 2    
    74   37   39 am   BACKBONE|DICT|INTERRES
    75   39   40 1    
    76   39  105 1    
    77   40   41 1    
    78   40   42 1    
    79   40  106 1    
    80   41  107 1    
    81   41  108 1    
    82   41  109 1    
    83   42   43 2    
    84   42   44 am   BACKBONE|DICT|INTERRES
    85   44   45 1    
    86   44  110 1    
    87   45   46 1    
    88   45   47 1    
    89   45  111 1    
    90   46  112 1    
    91   46  113 1    
    92   46  114 1    
    93   47   48 2    
    94   47   49 am   BACKBONE|DICT|INTERRES
    95   49   50 1    
    96   49  115 1    
    97   50   51 1    
    98   50   52 1    
    99   50  116 1    
   100   51  117 1    
   101   51  118 1    
   102   51  119 1    
   103   52   53 2    
   104   52   54 am   BACKBONE|DICT|INTERRES
   105   54   55 1    
   106   54  120 1    
   107   55   56 1    
   108   55   57 1    
   109   55  121 1    
   110   56  122 1    
   111   56  123 1    
   112   56  124 1    
   113   57   58 2    
   114   57   59 am   BACKBONE|DICT|INTERRES
   115   59   60 1    
   116   59  125 1    
   117   60   61 1    
   118   60   62 1    
   119   60  126 1    
   120   61  127 1    
   121   61  128 1    
   122   61  129 1    
   123   62   63 2    
   124   62   64 am   BACKBONE|DICT|INTERRES
   125   64   65 1    
   126   64  130 1    
   127   65   66 1    
   128   65   69 1    
   129   65  131 1    
   130   66   67 am   BACKBONE|DICT|INTERRES
   131   66   68 2    
   132   67  132 1    
   133   67  133 1    
   134   69   70 1    
   135   69  134 1    
   136   69  135 1    
   137   70   71 1    
   138   71  136 1    
   139   71  137 1    
@<TRIPOS>SUBSTRUCTURE
     1 UNK         1 GROUP             0       ****    0 ROOT    
