@<TRIPOS>MOLECULE
3R136
137   139    1
SMALL
USER_CHARGES


@<TRIPOS>ATOM
      1 CA         33.2345   23.7235   -1.5325 C.3       0 UNK        -0.1979 
      2 C          32.1629   24.7771   -1.2960 C.2       0 UNK         0.4864 
      3 O          32.2176   25.8513   -1.8945 O.2       0 UNK        -0.5359 
      4 N          31.1807   24.4745   -0.4365 N.am      1 UNK        -0.4318 
      5 CA         30.0852   25.3758   -0.0567 C.3       1 UNK         0.0824 
      6 C6         29.6483   25.1268    1.4087 C.3       12 UNK        -0.0944 
      7 S7         28.7499   23.5575    1.6849 S.3       12 UNK        -0.2672 
      8 C8         29.3595   23.0679    3.3298 C.3       12 UNK         0.0333 
      9 C9         29.0279   24.1040    4.3957 C.ar      12 UNK        -0.0807 
     10 C10        30.0513   24.8106    5.0354 C.ar      12 UNK        -0.0894 
     11 C11        29.7510   25.7552    6.0209 C.ar      12 UNK        -0.0804 
     12 C12        28.4158   26.0136    6.3440 C.ar      12 UNK        -0.0824 
     13 C13        27.3825   25.3148    5.7123 C.ar      12 UNK        -0.0762 
     14 C14        27.6975   24.3468    4.7522 C.ar      12 UNK        -0.0782 
     15 C15        25.9326   25.5899    6.0966 C.3       12 UNK         0.0230 
     16 S16        24.8639   25.9556    4.6652 S.3       12 UNK        -0.2608 
     17 C17        25.6273   27.4680    3.9787 C.3       12 UNK        -0.0989 
     18 CA         26.4734   27.1817    2.7054 C.3       5 UNK         0.0716 
     19 N          25.7558   26.4291    1.6667 N.am      5 UNK        -0.4135 
     20 C          24.6758   26.8435    0.9861 C.2       4 UNK         0.5031 
     21 O          24.1033   27.9142    1.1952 O.2       4 UNK        -0.5229 
     22 CA         24.1541   25.9322   -0.1371 C.3       4 UNK         0.0329 
     23 CB         24.0195   26.7127   -1.4578 C.3       4 UNK        -0.2001 
     24 N          25.0334   24.7860   -0.3734 N.am      4 UNK        -0.4303 
     25 C          24.6638   23.4977   -0.3499 C.2       3 UNK         0.5044 
     26 O          23.5384   23.1168   -0.0236 O.2       3 UNK        -0.5152 
     27 CA         25.7302   22.4560   -0.7603 C.3       3 UNK         0.0319 
     28 CB         25.1196   21.2313   -1.4741 C.3       3 UNK        -0.2001 
     29 N          26.8348   23.0267   -1.5448 N.am      3 UNK        -0.4354 
     30 C          26.7617   23.6504   -2.7336 C.2       2 UNK         0.4964 
     31 O          25.7418   23.6922   -3.4226 O.2       2 UNK        -0.5047 
     32 CA         28.0296   24.3886   -3.2161 C.3       2 UNK         0.0288 
     33 CB         27.6870   25.7127   -3.9337 C.3       2 UNK        -0.2113 
     34 N          29.0288   24.6249   -2.1618 N.am      2 UNK        -0.4145 
     35 C          28.8893   25.3484   -1.0378 C.2       1 UNK         0.5006 
     36 O          27.8454   25.9308   -0.7249 O.2       1 UNK        -0.5103 
     37 C          27.1453   28.4484    2.1218 C.2       5 UNK         0.5055 
     38 O          27.2507   29.4656    2.8083 O.2       5 UNK        -0.5220 
     39 N          27.5898   28.3665    0.8569 N.am      6 UNK        -0.4450 
     40 CA         28.1555   29.4756    0.0824 C.3       6 UNK         0.0367 
     41 CB         27.9131   29.2083   -1.4138 C.3       6 UNK        -0.1929 
     42 C          29.6491   29.7346    0.3562 C.2       6 UNK         0.5070 
     43 O          30.2280   30.6204   -0.2740 O.2       6 UNK        -0.5237 
     44 N          30.2593   28.9827    1.2821 N.am      7 UNK        -0.4739 
     45 CA         31.6662   29.0734    1.6919 C.3       7 UNK         0.0276 
     46 CB         32.0682   27.7375    2.3499 C.3       7 UNK        -0.1927 
     47 C          31.9703   30.3092    2.5708 C.2       7 UNK         0.5013 
     48 O          32.6039   30.1871    3.6223 O.2       7 UNK        -0.5193 
     49 N          31.5253   31.4893    2.1193 N.am      8 UNK        -0.4253 
     50 CA         31.7059   32.7904    2.7656 C.3       8 UNK         0.0242 
     51 CB         31.0200   33.8770    1.9211 C.3       8 UNK        -0.2000 
     52 C          33.1937   33.1111    2.9810 C.2       8 UNK         0.4948 
     53 O          33.9416   33.2021    2.0059 O.2       8 UNK        -0.5275 
     54 N          33.5882   33.2133    4.2579 N.am      9 UNK        -0.4246 
     55 CA         34.9557   33.3822    4.7714 C.3       9 UNK         0.0261 
     56 CB         35.5934   34.6903    4.2557 C.3       9 UNK        -0.1959 
     57 C          35.8853   32.1654    4.5646 C.2       9 UNK         0.5033 
     58 O          37.0517   32.2443    4.9547 O.2       9 UNK        -0.5390 
     59 N          35.3740   31.0632    3.9981 N.am      10 UNK        -0.4215 
     60 CA         36.0824   29.7892    3.8548 C.3       10 UNK         0.0240 
     61 CB         35.8255   29.2064    2.4557 C.3       10 UNK        -0.1982 
     62 C          35.6924   28.7987    4.9654 C.2       10 UNK         0.4970 
     63 O          36.5129   27.9474    5.3108 O.2       10 UNK        -0.4916 
     64 N          34.4816   28.9375    5.5286 N.am      11 UNK        -0.4279 
     65 CA         34.0381   28.2662    6.7613 C.3       11 UNK         0.1003 
     66 C          34.9693   28.5642    7.9710 C.2       11 UNK         0.5709 
     67 N          35.2446   27.5703    8.8048 N.am      11 UNK        -0.7358 
     68 O          35.4030   29.6957    8.1824 O.2       11 UNK        -0.4999 
     69 C69        32.5784   28.6472    7.1241 C.3       12 UNK        -0.0954 
     70 S70        31.3522   28.0104    5.9380 S.3       12 UNK        -0.2268 
     71 C71        30.8673   26.4691    6.7664 C.3       12 UNK         0.0203 
     72 H72        33.0553   22.8207   -0.9487 H         1 UNK         0.0888 
     73 H73        33.2635   23.4464   -2.5859 H         1 UNK         0.0888 
     74 H74        34.2126   24.1164   -1.2565 H         1 UNK         0.0888 
     75 H75        31.1759   23.5724    0.0200 H         1 UNK         0.3017 
     76 H76        30.4638   26.3989   -0.1029 H         1 UNK         0.0873 
     77 H77        29.0217   25.9458    1.7533 H         1 UNK         0.0745 
     78 H78        30.5265   25.1490    2.0551 H         1 UNK         0.0745 
     79 H79        28.9072   22.1140    3.6046 H         1 UNK         0.0705 
     80 H80        30.4350   22.8927    3.2744 H         1 UNK         0.0705 
     81 H81        31.0839   24.6181    4.7775 H         1 UNK         0.1334 
     82 H82        28.1847   26.7498    7.1020 H         1 UNK         0.1417 
     83 H83        26.9043   23.7955    4.2653 H         1 UNK         0.1562 
     84 H84        25.8657   26.4191    6.8028 H         1 UNK         0.0748 
     85 H85        25.5367   24.7150    6.6137 H         1 UNK         0.0748 
     86 H86        26.2428   27.9367    4.7490 H         1 UNK         0.0940 
     87 H87        24.8315   28.1814    3.7585 H         1 UNK         0.0940 
     88 H88        27.2948   26.5412    3.0212 H         1 UNK         0.0703 
     89 H89        26.1429   25.5269    1.4325 H         1 UNK         0.3081 
     90 H90        23.1615   25.5971    0.1698 H         1 UNK         0.0719 
     91 H91        23.3328   27.5537   -1.3531 H         1 UNK         0.0809 
     92 H92        24.9799   27.1117   -1.7872 H         1 UNK         0.0809 
     93 H93        23.6321   26.0772   -2.2545 H         1 UNK         0.0809 
     94 H94        25.9822   25.0097   -0.6561 H         1 UNK         0.2990 
     95 H95        26.1753   22.1046    0.1718 H         1 UNK         0.0690 
     96 H96        25.8879   20.5095   -1.7509 H         1 UNK         0.0788 
     97 H97        24.5829   21.5150   -2.3798 H         1 UNK         0.0788 
     98 H98        24.4103   20.7140   -0.8267 H         1 UNK         0.0788 
     99 H99        27.7263   23.0487   -1.0696 H         1 UNK         0.2993 
    100 H100       28.5015   23.7275   -3.9446 H         1 UNK         0.0949 
    101 H101       27.1355   26.3947   -3.2856 H         1 UNK         0.0767 
    102 H102       28.5877   26.2260   -4.2706 H         1 UNK         0.0767 
    103 H103       27.0700   25.5343   -4.8153 H         1 UNK         0.0767 
    104 H104       29.9227   24.1760   -2.3049 H         1 UNK         0.3013 
    105 H105       27.4909   27.4863    0.3573 H         1 UNK         0.3121 
    106 H106       27.6211   30.3899    0.3491 H         1 UNK         0.0774 
    107 H107       28.4837   28.3506   -1.7706 H         1 UNK         0.0815 
    108 H108       26.8593   29.0201   -1.6200 H         1 UNK         0.0815 
    109 H109       28.2104   30.0667   -2.0175 H         1 UNK         0.0815 
    110 H110       29.6856   28.3352    1.7999 H         1 UNK         0.2987 
    111 H111       32.2786   29.1908    0.7951 H         1 UNK         0.0949 
    112 H112       32.1380   26.9437    1.6074 H         1 UNK         0.0806 
    113 H113       33.0393   27.7881    2.8409 H         1 UNK         0.0806 
    114 H114       31.3461   27.4270    3.1041 H         1 UNK         0.0806 
    115 H115       31.0501   31.4829    1.2211 H         1 UNK         0.3010 
    116 H116       31.2042   32.7456    3.7345 H         1 UNK         0.0829 
    117 H117       31.4484   33.9397    0.9198 H         1 UNK         0.0813 
    118 H118       31.1286   34.8584    2.3848 H         1 UNK         0.0813 
    119 H119       29.9520   33.6840    1.8168 H         1 UNK         0.0813 
    120 H120       32.8828   33.0925    4.9726 H         1 UNK         0.3038 
    121 H121       34.8477   33.4819    5.8526 H         1 UNK         0.0769 
    122 H122       34.9413   35.5463    4.4291 H         1 UNK         0.0811 
    123 H123       35.8121   34.6443    3.1886 H         1 UNK         0.0811 
    124 H124       36.5348   34.8941    4.7673 H         1 UNK         0.0811 
    125 H125       34.3942   31.0625    3.7326 H         1 UNK         0.3204 
    126 H126       37.1587   29.9517    3.9434 H         1 UNK         0.0748 
    127 H127       34.7641   29.1114    2.2395 H         1 UNK         0.0771 
    128 H128       36.2610   29.8413    1.6839 H         1 UNK         0.0771 
    129 H129       36.2740   28.2173    2.3520 H         1 UNK         0.0771 
    130 H130       33.8207   29.5868    5.1182 H         1 UNK         0.2980 
    131 H131       34.0757   27.1925    6.5678 H         1 UNK         0.0545 
    132 H132       34.8853   26.6416    8.6479 H         1 UNK         0.3459 
    133 H133       35.8331   27.7507    9.6031 H         1 UNK         0.3459 
    134 H134       32.4716   29.7326    7.1714 H         1 UNK         0.0616 
    135 H135       32.3145   28.2803    8.1180 H         1 UNK         0.0616 
    136 H136       30.5468   26.6900    7.7858 H         1 UNK         0.0634 
    137 H137       31.7386   25.8178    6.8513 H         1 UNK         0.0634 
@<TRIPOS>BOND
     1    1    2 1    
     2    1   72 1    
     3    1   73 1    
     4    1   74 1    
     5    2    3 2    
     6    2    4 am   BACKBONE|DICT|INTERRES
     7    4    5 1    
     8    4   75 1    
     9    5    6 1    
    10    5   35 1    
    11    5   76 1    
    12    6    7 1    
    13    6   77 1    
    14    6   78 1    
    15    7    8 1    
    16    8    9 1    
    17    8   79 1    
    18    8   80 1    
    19    9   10 ar   
    20    9   14 ar   
    21   10   11 ar   
    22   10   81 1    
    23   11   12 ar   
    24   11   71 1    
    25   12   13 ar   
    26   12   82 1    
    27   13   14 ar   
    28   13   15 1    
    29   14   83 1    
    30   15   16 1    
    31   15   84 1    
    32   15   85 1    
    33   16   17 1    
    34   17   18 1    
    35   17   86 1    
    36   17   87 1    
    37   18   19 1    
    38   18   37 1    
    39   18   88 1    
    40   19   20 am   BACKBONE|DICT|INTERRES
    41   19   89 1    
    42   20   21 2    
    43   20   22 1    
    44   22   23 1    
    45   22   24 1    
    46   22   90 1    
    47   23   91 1    
    48   23   92 1    
    49   23   93 1    
    50   24   25 am   BACKBONE|DICT|INTERRES
    51   24   94 1    
    52   25   26 2    
    53   25   27 1    
    54   27   28 1    
    55   27   29 1    
    56   27   95 1    
    57   28   96 1    
    58   28   97 1    
    59   28   98 1    
    60   29   30 am   BACKBONE|DICT|INTERRES
    61   29   99 1    
    62   30   31 2    
    63   30   32 1    
    64   32   33 1    
    65   32   34 1    
    66   32  100 1    
    67   33  101 1    
    68   33  102 1    
    69   33  103 1    
    70   34   35 am   BACKBONE|DICT|INTERRES
    71   34  104 1    
    72   35   36 2    
    73   37   38 2    
    74   37   39 am   BACKBONE|DICT|INTERRES
    75   39   40 1    
    76   39  105 1    
    77   40   41 1    
    78   40   42 1    
    79   40  106 1    
    80   41  107 1    
    81   41  108 1    
    82   41  109 1    
    83   42   43 2    
    84   42   44 am   BACKBONE|DICT|INTERRES
    85   44   45 1    
    86   44  110 1    
    87   45   46 1    
    88   45   47 1    
    89   45  111 1    
    90   46  112 1    
    91   46  113 1    
    92   46  114 1    
    93   47   48 2    
    94   47   49 am   BACKBONE|DICT|INTERRES
    95   49   50 1    
    96   49  115 1    
    97   50   51 1    
    98   50   52 1    
    99   50  116 1    
   100   51  117 1    
   101   51  118 1    
   102   51  119 1    
   103   52   53 2    
   104   52   54 am   BACKBONE|DICT|INTERRES
   105   54   55 1    
   106   54  120 1    
   107   55   56 1    
   108   55   57 1    
   109   55  121 1    
   110   56  122 1    
   111   56  123 1    
   112   56  124 1    
   113   57   58 2    
   114   57   59 am   BACKBONE|DICT|INTERRES
   115   59   60 1    
   116   59  125 1    
   117   60   61 1    
   118   60   62 1    
   119   60  126 1    
   120   61  127 1    
   121   61  128 1    
   122   61  129 1    
   123   62   63 2    
   124   62   64 am   BACKBONE|DICT|INTERRES
   125   64   65 1    
   126   64  130 1    
   127   65   66 1    
   128   65   69 1    
   129   65  131 1    
   130   66   67 am   BACKBONE|DICT|INTERRES
   131   66   68 2    
   132   67  132 1    
   133   67  133 1    
   134   69   70 1    
   135   69  134 1    
   136   69  135 1    
   137   70   71 1    
   138   71  136 1    
   139   71  137 1    
@<TRIPOS>SUBSTRUCTURE
     1 UNK         1 GROUP             0       ****    0 ROOT    
