@<TRIPOS>MOLECULE
3R136
137   139    1
SMALL
USER_CHARGES


@<TRIPOS>ATOM
      1 CA         26.0310   17.6081    1.9622 C.3       0 UNK        -0.1979 
      2 C          26.7480   18.5531    1.0089 C.2       0 UNK         0.4864 
      3 O          26.5103   18.4997   -0.1993 O.2       0 UNK        -0.5359 
      4 N          27.6293   19.4091    1.5410 N.am      1 UNK        -0.4318 
      5 CA         28.3569   20.4406    0.7956 C.3       1 UNK         0.0824 
      6 C6         29.6503   20.8742    1.5359 C.3       12 UNK        -0.0944 
      7 S7         29.4231   21.4002    3.2736 S.3       12 UNK        -0.2672 
      8 C8         29.2138   23.2041    3.1363 C.3       12 UNK         0.0333 
      9 C9         30.5301   23.9514    2.9680 C.ar      12 UNK        -0.0807 
     10 C10        31.1710   24.5105    4.0783 C.ar      12 UNK        -0.0894 
     11 C11        32.3518   25.2444    3.9220 C.ar      12 UNK        -0.0804 
     12 C12        32.9135   25.3832    2.6497 C.ar      12 UNK        -0.0824 
     13 C13        32.2813   24.8325    1.5325 C.ar      12 UNK        -0.0762 
     14 C14        31.0832   24.1325    1.6975 C.ar      12 UNK        -0.0782 
     15 C15        32.8942   24.9918    0.1485 C.3       12 UNK         0.0230 
     16 S16        32.5974   26.6439   -0.5570 S.3       12 UNK        -0.2608 
     17 C17        30.7851   26.6443   -0.7677 C.3       12 UNK        -0.0989 
     18 CA         30.0922   27.8746   -0.1347 C.3       5 UNK         0.0716 
     19 N          28.7187   27.9937   -0.6254 N.am      5 UNK        -0.4135 
     20 C          28.0221   29.1359   -0.6851 C.2       4 UNK         0.5031 
     21 O          28.4853   30.2379   -0.3953 O.2       4 UNK        -0.5229 
     22 CA         26.5516   29.0250   -1.1262 C.3       4 UNK         0.0329 
     23 CB         26.4370   29.1355   -2.6549 C.3       4 UNK        -0.2001 
     24 N          25.9173   27.7817   -0.6769 N.am      4 UNK        -0.4303 
     25 C          25.6383   27.4978    0.6036 C.2       3 UNK         0.5044 
     26 O          25.8206   28.2846    1.5314 O.2       3 UNK        -0.5152 
     27 CA         25.0950   26.0901    0.9089 C.3       3 UNK         0.0319 
     28 CB         23.5583   26.0991    0.9147 C.3       3 UNK        -0.2001 
     29 N          25.5719   25.0453   -0.0052 N.am      3 UNK        -0.4354 
     30 C          26.8506   24.6720   -0.1544 C.2       2 UNK         0.4964 
     31 O          27.7984   25.2208    0.4117 O.2       2 UNK        -0.5047 
     32 CA         27.1213   23.5383   -1.1582 C.3       2 UNK         0.0288 
     33 CB         27.8880   24.0820   -2.3758 C.3       2 UNK        -0.2113 
     34 N          27.8693   22.4161   -0.5814 N.am      2 UNK        -0.4145 
     35 C          27.4417   21.6308    0.4196 C.2       1 UNK         0.5006 
     36 O          26.3785   21.8103    1.0213 O.2       1 UNK        -0.5103 
     37 C          30.1274   27.8797    1.4113 C.2       5 UNK         0.5055 
     38 O          31.0732   28.4044    1.9924 O.2       5 UNK        -0.5220 
     39 N          29.0673   27.3666    2.0531 N.am      6 UNK        -0.4450 
     40 CA         28.8766   27.3571    3.5080 C.3       6 UNK         0.0367 
     41 CB         27.7014   26.4233    3.8448 C.3       6 UNK        -0.1929 
     42 C          28.6251   28.7410    4.1417 C.2       6 UNK         0.5070 
     43 O          28.5479   28.8247    5.3690 O.2       6 UNK        -0.5237 
     44 N          28.4447   29.7880    3.3250 N.am      7 UNK        -0.4739 
     45 CA         28.0925   31.1516    3.7269 C.3       7 UNK         0.0276 
     46 CB         27.5896   31.9129    2.4868 C.3       7 UNK        -0.1927 
     47 C          29.2321   31.8965    4.4539 C.2       7 UNK         0.5013 
     48 O          29.7755   32.8657    3.9179 O.2       7 UNK        -0.5193 
     49 N          29.5573   31.4344    5.6695 N.am      8 UNK        -0.4253 
     50 CA         30.4913   32.0124    6.6428 C.3       8 UNK         0.0242 
     51 CB         29.8702   33.2706    7.2904 C.3       8 UNK        -0.2000 
     52 C          31.8880   32.2523    6.0435 C.2       8 UNK         0.4948 
     53 O          32.6489   31.2974    5.8896 O.2       8 UNK        -0.5275 
     54 N          32.1864   33.5082    5.6796 N.am      9 UNK        -0.4246 
     55 CA         33.4239   33.9404    5.0231 C.3       9 UNK         0.0261 
     56 CB         33.3917   35.4660    4.8386 C.3       9 UNK        -0.1959 
     57 C          33.7062   33.2420    3.6795 C.2       9 UNK         0.5033 
     58 O          34.8718   33.1534    3.2897 O.2       9 UNK        -0.5390 
     59 N          32.6619   32.7188    3.0173 N.am      10 UNK        -0.4215 
     60 CA         32.7667   31.9013    1.8047 C.3       10 UNK         0.0240 
     61 CB         31.3618   31.6254    1.2493 C.3       10 UNK        -0.1982 
     62 C          33.5602   30.5899    1.9900 C.2       10 UNK         0.4970 
     63 O          34.0869   30.0814    0.9990 O.2       10 UNK        -0.4916 
     64 N          33.6875   30.0984    3.2339 N.am      11 UNK        -0.4279 
     65 CA         34.5954   28.9980    3.5969 C.3       11 UNK         0.1003 
     66 C          36.1086   29.3492    3.4631 C.2       11 UNK         0.5709 
     67 N          36.5049   30.6129    3.3457 N.am      11 UNK        -0.7358 
     68 O          36.9445   28.4486    3.4611 O.2       11 UNK        -0.4999 
     69 C69        34.3015   28.4355    5.0146 C.3       12 UNK        -0.0954 
     70 S70        32.6451   27.6860    5.1843 S.3       12 UNK        -0.2268 
     71 C71        33.0150   25.9000    5.1224 C.3       12 UNK         0.0203 
     72 H72        26.3422   17.7588    2.9958 H         1 UNK         0.0888 
     73 H73        24.9542   17.7653    1.9062 H         1 UNK         0.0888 
     74 H74        26.2397   16.5730    1.6928 H         1 UNK         0.0888 
     75 H75        27.7633   19.4338    2.5421 H         1 UNK         0.3017 
     76 H76        28.6704   19.9894   -0.1489 H         1 UNK         0.0873 
     77 H77        30.1879   21.6307    0.9703 H         1 UNK         0.0745 
     78 H78        30.3315   20.0222    1.5615 H         1 UNK         0.0745 
     79 H79        28.5396   23.4423    2.3148 H         1 UNK         0.0705 
     80 H80        28.7133   23.5463    4.0428 H         1 UNK         0.0705 
     81 H81        30.7358   24.3968    5.0618 H         1 UNK         0.1334 
     82 H82        33.8298   25.9424    2.5241 H         1 UNK         0.1417 
     83 H83        30.5737   23.7411    0.8300 H         1 UNK         0.1562 
     84 H84        32.5095   24.2335   -0.5354 H         1 UNK         0.0748 
     85 H85        33.9707   24.8254    0.2094 H         1 UNK         0.0748 
     86 H86        30.3464   25.7211   -0.3926 H         1 UNK         0.0940 
     87 H87        30.6006   26.6356   -1.8432 H         1 UNK         0.0940 
     88 H88        30.6379   28.7613   -0.4656 H         1 UNK         0.0703 
     89 H89        28.2445   27.1266   -0.8343 H         1 UNK         0.3081 
     90 H90        26.0101   29.8629   -0.6813 H         1 UNK         0.0719 
     91 H91        26.8848   30.0641   -3.0122 H         1 UNK         0.0809 
     92 H92        26.9442   28.3135   -3.1616 H         1 UNK         0.0809 
     93 H93        25.3951   29.1370   -2.9757 H         1 UNK         0.0809 
     94 H94        25.7094   27.0873   -1.3797 H         1 UNK         0.2990 
     95 H95        25.4339   25.8213    1.9109 H         1 UNK         0.0690 
     96 H96        23.1752   26.8499    1.6076 H         1 UNK         0.0788 
     97 H97        23.1566   25.1361    1.2307 H         1 UNK         0.0788 
     98 H98        23.1508   26.3275   -0.0710 H         1 UNK         0.0788 
     99 H99        24.8601   24.5447   -0.5182 H         1 UNK         0.2993 
    100 H100       26.1647   23.1440   -1.5076 H         1 UNK         0.0949 
    101 H101       28.0103   23.3159   -3.1419 H         1 UNK         0.0767 
    102 H102       27.3544   24.9142   -2.8373 H         1 UNK         0.0767 
    103 H103       28.8803   24.4422   -2.1018 H         1 UNK         0.0767 
    104 H104       28.7574   22.2088   -1.0137 H         1 UNK         0.3013 
    105 H105       28.3619   26.8904    1.5034 H         1 UNK         0.3121 
    106 H106       29.7866   26.9539    3.9547 H         1 UNK         0.0774 
    107 H107       27.7283   26.1325    4.8955 H         1 UNK         0.0815 
    108 H108       26.7408   26.9086    3.6704 H         1 UNK         0.0815 
    109 H109       27.7179   25.5138    3.2491 H         1 UNK         0.0815 
    110 H110       28.5267   29.6229    2.3319 H         1 UNK         0.2987 
    111 H111       27.2583   31.0875    4.4291 H         1 UNK         0.0949 
    112 H112       27.2671   32.9209    2.7506 H         1 UNK         0.0806 
    113 H113       28.3666   32.0080    1.7278 H         1 UNK         0.0806 
    114 H114       26.7377   31.4087    2.0296 H         1 UNK         0.0806 
    115 H115       29.1320   30.5488    5.9351 H         1 UNK         0.3010 
    116 H116       30.6222   31.2665    7.4285 H         1 UNK         0.0829 
    117 H117       29.6089   34.0326    6.5552 H         1 UNK         0.0813 
    118 H118       28.9589   33.0173    7.8325 H         1 UNK         0.0813 
    119 H119       30.5531   33.7220    8.0118 H         1 UNK         0.0813 
    120 H120       31.4753   34.2134    5.8088 H         1 UNK         0.3038 
    121 H121       34.2499   33.6923    5.6928 H         1 UNK         0.0769 
    122 H122       32.5645   35.7774    4.1994 H         1 UNK         0.0811 
    123 H123       34.3131   35.8226    4.3757 H         1 UNK         0.0811 
    124 H124       33.2921   35.9809    5.7943 H         1 UNK         0.0811 
    125 H125       31.7302   32.8371    3.4071 H         1 UNK         0.3204 
    126 H126       33.3072   32.4946    1.0645 H         1 UNK         0.0748 
    127 H127       31.4110   31.0482    0.3252 H         1 UNK         0.0771 
    128 H128       30.7596   31.0543    1.9550 H         1 UNK         0.0771 
    129 H129       30.8303   32.5507    1.0269 H         1 UNK         0.0771 
    130 H130       33.2242   30.5604    4.0082 H         1 UNK         0.2980 
    131 H131       34.4150   28.1941    2.8819 H         1 UNK         0.0545 
    132 H132       37.4888   30.8100    3.2576 H         1 UNK         0.3459 
    133 H133       35.8380   31.3769    3.3339 H         1 UNK         0.3459 
    134 H134       34.3830   29.2337    5.7538 H         1 UNK         0.0616 
    135 H135       35.0521   27.6990    5.3051 H         1 UNK         0.0616 
    136 H136       34.0890   25.7169    5.0842 H         1 UNK         0.0634 
    137 H137       32.6647   25.4413    6.0482 H         1 UNK         0.0634 
@<TRIPOS>BOND
     1    1    2 1    
     2    1   72 1    
     3    1   73 1    
     4    1   74 1    
     5    2    3 2    
     6    2    4 am   BACKBONE|DICT|INTERRES
     7    4    5 1    
     8    4   75 1    
     9    5    6 1    
    10    5   35 1    
    11    5   76 1    
    12    6    7 1    
    13    6   77 1    
    14    6   78 1    
    15    7    8 1    
    16    8    9 1    
    17    8   79 1    
    18    8   80 1    
    19    9   10 ar   
    20    9   14 ar   
    21   10   11 ar   
    22   10   81 1    
    23   11   12 ar   
    24   11   71 1    
    25   12   13 ar   
    26   12   82 1    
    27   13   14 ar   
    28   13   15 1    
    29   14   83 1    
    30   15   16 1    
    31   15   84 1    
    32   15   85 1    
    33   16   17 1    
    34   17   18 1    
    35   17   86 1    
    36   17   87 1    
    37   18   19 1    
    38   18   37 1    
    39   18   88 1    
    40   19   20 am   BACKBONE|DICT|INTERRES
    41   19   89 1    
    42   20   21 2    
    43   20   22 1    
    44   22   23 1    
    45   22   24 1    
    46   22   90 1    
    47   23   91 1    
    48   23   92 1    
    49   23   93 1    
    50   24   25 am   BACKBONE|DICT|INTERRES
    51   24   94 1    
    52   25   26 2    
    53   25   27 1    
    54   27   28 1    
    55   27   29 1    
    56   27   95 1    
    57   28   96 1    
    58   28   97 1    
    59   28   98 1    
    60   29   30 am   BACKBONE|DICT|INTERRES
    61   29   99 1    
    62   30   31 2    
    63   30   32 1    
    64   32   33 1    
    65   32   34 1    
    66   32  100 1    
    67   33  101 1    
    68   33  102 1    
    69   33  103 1    
    70   34   35 am   BACKBONE|DICT|INTERRES
    71   34  104 1    
    72   35   36 2    
    73   37   38 2    
    74   37   39 am   BACKBONE|DICT|INTERRES
    75   39   40 1    
    76   39  105 1    
    77   40   41 1    
    78   40   42 1    
    79   40  106 1    
    80   41  107 1    
    81   41  108 1    
    82   41  109 1    
    83   42   43 2    
    84   42   44 am   BACKBONE|DICT|INTERRES
    85   44   45 1    
    86   44  110 1    
    87   45   46 1    
    88   45   47 1    
    89   45  111 1    
    90   46  112 1    
    91   46  113 1    
    92   46  114 1    
    93   47   48 2    
    94   47   49 am   BACKBONE|DICT|INTERRES
    95   49   50 1    
    96   49  115 1    
    97   50   51 1    
    98   50   52 1    
    99   50  116 1    
   100   51  117 1    
   101   51  118 1    
   102   51  119 1    
   103   52   53 2    
   104   52   54 am   BACKBONE|DICT|INTERRES
   105   54   55 1    
   106   54  120 1    
   107   55   56 1    
   108   55   57 1    
   109   55  121 1    
   110   56  122 1    
   111   56  123 1    
   112   56  124 1    
   113   57   58 2    
   114   57   59 am   BACKBONE|DICT|INTERRES
   115   59   60 1    
   116   59  125 1    
   117   60   61 1    
   118   60   62 1    
   119   60  126 1    
   120   61  127 1    
   121   61  128 1    
   122   61  129 1    
   123   62   63 2    
   124   62   64 am   BACKBONE|DICT|INTERRES
   125   64   65 1    
   126   64  130 1    
   127   65   66 1    
   128   65   69 1    
   129   65  131 1    
   130   66   67 am   BACKBONE|DICT|INTERRES
   131   66   68 2    
   132   67  132 1    
   133   67  133 1    
   134   69   70 1    
   135   69  134 1    
   136   69  135 1    
   137   70   71 1    
   138   71  136 1    
   139   71  137 1    
@<TRIPOS>SUBSTRUCTURE
     1 UNK         1 GROUP             0       ****    0 ROOT    
