@<TRIPOS>MOLECULE
3R136
137   139    1
SMALL
USER_CHARGES


@<TRIPOS>ATOM
      1 CA         29.4518   23.9113   -3.5062 C.3       0 UNK        -0.1979 
      2 C          29.1888   22.8695   -2.4298 C.2       0 UNK         0.4864 
      3 O          28.8821   21.7211   -2.7525 O.2       0 UNK        -0.5359 
      4 N          29.2821   23.2646   -1.1519 N.am      1 UNK        -0.4318 
      5 CA         29.0849   22.4536    0.0613 C.3       1 UNK         0.0824 
      6 C6         30.0189   21.2128    0.1493 C.3       12 UNK        -0.0944 
      7 S7         30.6778   20.9585    1.8325 S.3       12 UNK        -0.2672 
      8 C8         32.3976   21.5427    1.6622 C.3       12 UNK         0.0333 
      9 C9         32.5031   23.0619    1.7210 C.ar      12 UNK        -0.0807 
     10 C10        32.9047   23.6968    2.9026 C.ar      12 UNK        -0.0894 
     11 C11        33.0405   25.0889    2.9522 C.ar      12 UNK        -0.0804 
     12 C12        32.7514   25.8410    1.8120 C.ar      12 UNK        -0.0824 
     13 C13        32.3108   25.2270    0.6384 C.ar      12 UNK        -0.0762 
     14 C14        32.2209   23.8341    0.5894 C.ar      12 UNK        -0.0782 
     15 C15        31.9228   26.0709   -0.5677 C.3       12 UNK         0.0230 
     16 S16        30.1481   26.4935   -0.5458 S.3       12 UNK        -0.2608 
     17 C17        30.0817   27.6833    0.8373 C.3       12 UNK        -0.0989 
     18 CA         28.6823   28.3218    1.0335 C.3       5 UNK         0.0716 
     19 N          27.5935   27.3556    1.2423 N.am      5 UNK        -0.4135 
     20 C          27.4765   26.4226    2.1968 C.2       4 UNK         0.5031 
     21 O          28.3304   26.2114    3.0590 O.2       4 UNK        -0.5229 
     22 CA         26.1836   25.5909    2.2181 C.3       4 UNK         0.0329 
     23 CB         25.0631   26.3258    2.9801 C.3       4 UNK        -0.2001 
     24 N          25.7371   25.1213    0.8992 N.am      4 UNK        -0.4303 
     25 C          25.2490   25.8220   -0.1369 C.2       3 UNK         0.5044 
     26 O          25.1039   27.0450   -0.1134 O.2       3 UNK        -0.5152 
     27 CA         24.9141   25.0549   -1.4354 C.3       3 UNK         0.0319 
     28 CB         25.5449   25.7458   -2.6583 C.3       3 UNK        -0.2001 
     29 N          25.3649   23.6618   -1.4136 N.am      3 UNK        -0.4354 
     30 C          24.7177   22.6283   -0.8560 C.2       2 UNK         0.4964 
     31 O          23.5876   22.7032   -0.3751 O.2       2 UNK        -0.5047 
     32 CA         25.4968   21.3010   -0.7741 C.3       2 UNK         0.0288 
     33 CB         25.1624   20.4011   -1.9741 C.3       2 UNK        -0.2113 
     34 N          26.9491   21.5066   -0.7124 N.am      2 UNK        -0.4145 
     35 C          27.6031   22.0968    0.2983 C.2       1 UNK         0.5006 
     36 O          27.0568   22.4309    1.3498 O.2       1 UNK        -0.5103 
     37 C          28.7080   29.3985    2.1394 C.2       5 UNK         0.5055 
     38 O          28.5681   30.5842    1.8360 O.2       5 UNK        -0.5220 
     39 N          28.8450   28.9568    3.3969 N.am      6 UNK        -0.4450 
     40 CA         28.7740   29.7284    4.6374 C.3       6 UNK         0.0367 
     41 CB         27.3053   30.1126    4.9293 C.3       6 UNK        -0.1929 
     42 C          29.7587   30.9142    4.6583 C.2       6 UNK         0.5070 
     43 O          30.9496   30.7183    4.4022 O.2       6 UNK        -0.5237 
     44 N          29.2562   32.1186    4.9635 N.am      7 UNK        -0.4739 
     45 CA         30.0226   33.3584    5.1131 C.3       7 UNK         0.0276 
     46 CB         29.0777   34.4874    5.5536 C.3       7 UNK        -0.1927 
     47 C          30.8130   33.7788    3.8629 C.2       7 UNK         0.5013 
     48 O          31.8601   34.4080    4.0108 O.2       7 UNK        -0.5193 
     49 N          30.3450   33.3870    2.6678 N.am      8 UNK        -0.4253 
     50 CA         31.0299   33.6300    1.3927 C.3       8 UNK         0.0242 
     51 CB         30.0935   33.2743    0.2271 C.3       8 UNK        -0.2000 
     52 C          32.3665   32.8755    1.2606 C.2       8 UNK         0.4948 
     53 O          33.2399   33.3332    0.5231 O.2       8 UNK        -0.5275 
     54 N          32.5084   31.7568    1.9842 N.am      9 UNK        -0.4246 
     55 CA         33.7350   30.9629    2.0813 C.3       9 UNK         0.0261 
     56 CB         33.3889   29.5060    1.7472 C.3       9 UNK        -0.1959 
     57 C          34.3815   31.0615    3.4759 C.2       9 UNK         0.5033 
     58 O          35.3772   30.3781    3.7190 O.2       9 UNK        -0.5390 
     59 N          33.8089   31.8904    4.3631 N.am      10 UNK        -0.4215 
     60 CA         34.1626   32.0765    5.7735 C.3       10 UNK         0.0240 
     61 CB         35.5314   32.7787    5.9045 C.3       10 UNK        -0.1982 
     62 C          34.0631   30.7774    6.6013 C.2       10 UNK         0.4970 
     63 O          34.9369   30.5155    7.4309 O.2       10 UNK        -0.4916 
     64 N          32.9989   29.9971    6.3745 N.am      11 UNK        -0.4279 
     65 CA         32.6919   28.7625    7.1101 C.3       11 UNK         0.1003 
     66 C          31.2055   28.7090    7.5626 C.2       11 UNK         0.5709 
     67 N          30.6824   27.5399    7.9068 N.am      11 UNK        -0.7358 
     68 O          30.5272   29.7303    7.6566 O.2       11 UNK        -0.4999 
     69 C69        33.2300   27.4943    6.3862 C.3       12 UNK        -0.0954 
     70 S70        32.3951   27.0719    4.8186 S.3       12 UNK        -0.2268 
     71 C71        33.5328   25.7776    4.2203 C.3       12 UNK         0.0203 
     72 H72        28.5814   24.0089   -4.1545 H         1 UNK         0.0888 
     73 H73        29.6706   24.8918   -3.0848 H         1 UNK         0.0888 
     74 H74        30.3007   23.6091   -4.1188 H         1 UNK         0.0888 
     75 H75        29.5048   24.2360   -0.9673 H         1 UNK         0.3017 
     76 H76        29.3549   23.1379    0.8685 H         1 UNK         0.0873 
     77 H77        30.8586   21.3105   -0.5391 H         1 UNK         0.0745 
     78 H78        29.5105   20.3001   -0.1680 H         1 UNK         0.0745 
     79 H79        32.9899   21.0991    2.4641 H         1 UNK         0.0705 
     80 H80        32.8314   21.1700    0.7331 H         1 UNK         0.0705 
     81 H81        33.1290   23.1040    3.7790 H         1 UNK         0.1334 
     82 H82        32.8472   26.9131    1.8483 H         1 UNK         0.1417 
     83 H83        31.9178   23.3529   -0.3286 H         1 UNK         0.1562 
     84 H84        32.1450   25.5276   -1.4874 H         1 UNK         0.0748 
     85 H85        32.5182   26.9846   -0.6041 H         1 UNK         0.0748 
     86 H86        30.8197   28.4625    0.6434 H         1 UNK         0.0940 
     87 H87        30.3984   27.1776    1.7498 H         1 UNK         0.0940 
     88 H88        28.4312   28.8403    0.1066 H         1 UNK         0.0703 
     89 H89        26.7945   27.4585    0.6217 H         1 UNK         0.3081 
     90 H90        26.4129   24.6852    2.7819 H         1 UNK         0.0719 
     91 H91        24.7863   27.2656    2.5017 H         1 UNK         0.0809 
     92 H92        24.1665   25.7107    3.0556 H         1 UNK         0.0809 
     93 H93        25.3790   26.5643    3.9967 H         1 UNK         0.0809 
     94 H94        25.8575   24.1246    0.7669 H         1 UNK         0.2990 
     95 H95        23.8285   25.0751   -1.5517 H         1 UNK         0.0690 
     96 H96        25.3012   25.2197   -3.5816 H         1 UNK         0.0788 
     97 H97        26.6316   25.7983   -2.5774 H         1 UNK         0.0788 
     98 H98        25.1770   26.7671   -2.7670 H         1 UNK         0.0788 
     99 H99        26.2836   23.4869   -1.7921 H         1 UNK         0.2993 
    100 H100       25.1864   20.7918    0.1410 H         1 UNK         0.0949 
    101 H101       25.6533   19.4313   -1.8903 H         1 UNK         0.0767 
    102 H102       24.0890   20.2158   -2.0363 H         1 UNK         0.0767 
    103 H103       25.4720   20.8534   -2.9173 H         1 UNK         0.0767 
    104 H104       27.4882   21.3037   -1.5522 H         1 UNK         0.3013 
    105 H105       28.9303   27.9489    3.5105 H         1 UNK         0.3121 
    106 H106       29.0995   29.0517    5.4275 H         1 UNK         0.0774 
    107 H107       27.2030   30.5809    5.9093 H         1 UNK         0.0815 
    108 H108       26.9035   30.7979    4.1818 H         1 UNK         0.0815 
    109 H109       26.6672   29.2286    4.9372 H         1 UNK         0.0815 
    110 H110       28.2647   32.1807    5.1450 H         1 UNK         0.2987 
    111 H111       30.7502   33.1921    5.9104 H         1 UNK         0.0949 
    112 H112       28.3014   34.6776    4.8113 H         1 UNK         0.0806 
    113 H113       28.5892   34.2514    6.4993 H         1 UNK         0.0806 
    114 H114       29.6246   35.4203    5.6993 H         1 UNK         0.0806 
    115 H115       29.4999   32.8311    2.6364 H         1 UNK         0.3010 
    116 H116       31.2525   34.6978    1.3357 H         1 UNK         0.0829 
    117 H117       29.1528   33.8216    0.2888 H         1 UNK         0.0813 
    118 H118       30.5522   33.5265   -0.7300 H         1 UNK         0.0813 
    119 H119       29.8630   32.2090    0.2036 H         1 UNK         0.0813 
    120 H120       31.7400   31.4545    2.5751 H         1 UNK         0.3038 
    121 H121       34.4794   31.3115    1.3627 H         1 UNK         0.0769 
    122 H122       34.2669   28.8633    1.8250 H         1 UNK         0.0811 
    123 H123       33.0129   29.4152    0.7285 H         1 UNK         0.0811 
    124 H124       32.6313   29.1182    2.4296 H         1 UNK         0.0811 
    125 H125       33.0151   32.4305    4.0457 H         1 UNK         0.3204 
    126 H126       33.4102   32.7506    6.1853 H         1 UNK         0.0748 
    127 H127       35.7425   33.0351    6.9434 H         1 UNK         0.0771 
    128 H128       36.3470   32.1456    5.5535 H         1 UNK         0.0771 
    129 H129       35.5566   33.7062    5.3323 H         1 UNK         0.0771 
    130 H130       32.3029   30.2771    5.6873 H         1 UNK         0.2980 
    131 H131       33.2200   28.8103    8.0639 H         1 UNK         0.0545 
    132 H132       31.2189   26.6904    7.8347 H         1 UNK         0.3459 
    133 H133       29.7269   27.5054    8.2243 H         1 UNK         0.3459 
    134 H134       34.2930   27.6279    6.1790 H         1 UNK         0.0616 
    135 H135       33.1713   26.6291    7.0479 H         1 UNK         0.0616 
    136 H136       33.6810   25.0466    5.0167 H         1 UNK         0.0634 
    137 H137       34.5076   26.2257    4.0227 H         1 UNK         0.0634 
@<TRIPOS>BOND
     1    1    2 1    
     2    1   72 1    
     3    1   73 1    
     4    1   74 1    
     5    2    3 2    
     6    2    4 am   BACKBONE|DICT|INTERRES
     7    4    5 1    
     8    4   75 1    
     9    5    6 1    
    10    5   35 1    
    11    5   76 1    
    12    6    7 1    
    13    6   77 1    
    14    6   78 1    
    15    7    8 1    
    16    8    9 1    
    17    8   79 1    
    18    8   80 1    
    19    9   10 ar   
    20    9   14 ar   
    21   10   11 ar   
    22   10   81 1    
    23   11   12 ar   
    24   11   71 1    
    25   12   13 ar   
    26   12   82 1    
    27   13   14 ar   
    28   13   15 1    
    29   14   83 1    
    30   15   16 1    
    31   15   84 1    
    32   15   85 1    
    33   16   17 1    
    34   17   18 1    
    35   17   86 1    
    36   17   87 1    
    37   18   19 1    
    38   18   37 1    
    39   18   88 1    
    40   19   20 am   BACKBONE|DICT|INTERRES
    41   19   89 1    
    42   20   21 2    
    43   20   22 1    
    44   22   23 1    
    45   22   24 1    
    46   22   90 1    
    47   23   91 1    
    48   23   92 1    
    49   23   93 1    
    50   24   25 am   BACKBONE|DICT|INTERRES
    51   24   94 1    
    52   25   26 2    
    53   25   27 1    
    54   27   28 1    
    55   27   29 1    
    56   27   95 1    
    57   28   96 1    
    58   28   97 1    
    59   28   98 1    
    60   29   30 am   BACKBONE|DICT|INTERRES
    61   29   99 1    
    62   30   31 2    
    63   30   32 1    
    64   32   33 1    
    65   32   34 1    
    66   32  100 1    
    67   33  101 1    
    68   33  102 1    
    69   33  103 1    
    70   34   35 am   BACKBONE|DICT|INTERRES
    71   34  104 1    
    72   35   36 2    
    73   37   38 2    
    74   37   39 am   BACKBONE|DICT|INTERRES
    75   39   40 1    
    76   39  105 1    
    77   40   41 1    
    78   40   42 1    
    79   40  106 1    
    80   41  107 1    
    81   41  108 1    
    82   41  109 1    
    83   42   43 2    
    84   42   44 am   BACKBONE|DICT|INTERRES
    85   44   45 1    
    86   44  110 1    
    87   45   46 1    
    88   45   47 1    
    89   45  111 1    
    90   46  112 1    
    91   46  113 1    
    92   46  114 1    
    93   47   48 2    
    94   47   49 am   BACKBONE|DICT|INTERRES
    95   49   50 1    
    96   49  115 1    
    97   50   51 1    
    98   50   52 1    
    99   50  116 1    
   100   51  117 1    
   101   51  118 1    
   102   51  119 1    
   103   52   53 2    
   104   52   54 am   BACKBONE|DICT|INTERRES
   105   54   55 1    
   106   54  120 1    
   107   55   56 1    
   108   55   57 1    
   109   55  121 1    
   110   56  122 1    
   111   56  123 1    
   112   56  124 1    
   113   57   58 2    
   114   57   59 am   BACKBONE|DICT|INTERRES
   115   59   60 1    
   116   59  125 1    
   117   60   61 1    
   118   60   62 1    
   119   60  126 1    
   120   61  127 1    
   121   61  128 1    
   122   61  129 1    
   123   62   63 2    
   124   62   64 am   BACKBONE|DICT|INTERRES
   125   64   65 1    
   126   64  130 1    
   127   65   66 1    
   128   65   69 1    
   129   65  131 1    
   130   66   67 am   BACKBONE|DICT|INTERRES
   131   66   68 2    
   132   67  132 1    
   133   67  133 1    
   134   69   70 1    
   135   69  134 1    
   136   69  135 1    
   137   70   71 1    
   138   71  136 1    
   139   71  137 1    
@<TRIPOS>SUBSTRUCTURE
     1 UNK         1 GROUP             0       ****    0 ROOT    
