@<TRIPOS>MOLECULE
3R136
137   139    1
SMALL
USER_CHARGES


@<TRIPOS>ATOM
      1 CA         28.2393   23.4436   -2.6587 C.3       0 UNK        -0.1979 
      2 C          28.8967   24.7971   -2.8834 C.2       0 UNK         0.4864 
      3 O          28.9321   25.2868   -4.0144 O.2       0 UNK        -0.5359 
      4 N          29.4105   25.4151   -1.8138 N.am      1 UNK        -0.4318 
      5 CA         30.0157   26.7496   -1.7941 C.3       1 UNK         0.0824 
      6 C6         31.0129   26.9111   -0.6133 C.3       12 UNK        -0.0944 
      7 S7         30.4092   26.3154    1.0100 S.3       12 UNK        -0.2672 
      8 C8         31.7333   25.1466    1.4414 C.3       12 UNK         0.0333 
      9 C9         31.5879   24.6721    2.8760 C.ar      12 UNK        -0.0807 
     10 C10        32.1497   25.4151    3.9164 C.ar      12 UNK        -0.0894 
     11 C11        32.0179   24.9921    5.2418 C.ar      12 UNK        -0.0804 
     12 C12        31.2889   23.8330    5.5255 C.ar      12 UNK        -0.0824 
     13 C13        30.7132   23.0852    4.4918 C.ar      12 UNK        -0.0762 
     14 C14        30.8919   23.4964    3.1663 C.ar      12 UNK        -0.0782 
     15 C15        29.9063   21.8310    4.8156 C.3       12 UNK         0.0230 
     16 S16        28.2778   21.7786    3.9876 S.3       12 UNK        -0.2608 
     17 C17        27.5230   23.3552    4.5089 C.3       12 UNK        -0.0989 
     18 CA         27.5134   24.4232    3.3736 C.3       5 UNK         0.0716 
     19 N          26.3087   24.3713    2.5519 N.am      5 UNK        -0.4135 
     20 C          26.0775   23.5483    1.5224 C.2       4 UNK         0.5031 
     21 O          26.8436   22.6596    1.1507 O.2       4 UNK        -0.5229 
     22 CA         24.7759   23.7928    0.7354 C.3       4 UNK         0.0329 
     23 CB         23.5725   23.1679    1.4603 C.3       4 UNK        -0.2001 
     24 N          24.5194   25.2154    0.4817 N.am      4 UNK        -0.4303 
     25 C          25.3371   26.0092   -0.2238 C.2       3 UNK         0.5044 
     26 O          26.3612   25.6043   -0.7785 O.2       3 UNK        -0.5152 
     27 CA         24.9595   27.4998   -0.2898 C.3       3 UNK         0.0319 
     28 CB         25.0007   28.1324    1.1120 C.3       3 UNK        -0.2001 
     29 N          25.8981   28.2088   -1.1602 N.am      3 UNK        -0.4354 
     30 C          25.7779   28.3159   -2.4883 C.2       2 UNK         0.4964 
     31 O          24.7493   28.0430   -3.1087 O.2       2 UNK        -0.5047 
     32 CA         27.0316   28.7540   -3.2671 C.3       2 UNK         0.0288 
     33 CB         27.3230   30.2594   -3.0943 C.3       2 UNK        -0.2113 
     34 N          28.2054   27.9158   -2.9741 N.am      2 UNK        -0.4145 
     35 C          28.9301   27.8480   -1.8470 C.2       1 UNK         0.5006 
     36 O          28.7389   28.5794   -0.8763 O.2       1 UNK        -0.5103 
     37 C          27.6040   25.8397    3.9640 C.2       5 UNK         0.5055 
     38 O          26.5744   26.5044    4.1104 O.2       5 UNK        -0.5220 
     39 N          28.8281   26.2278    4.3489 N.am      6 UNK        -0.4450 
     40 CA         29.1840   27.4055    5.1480 C.3       6 UNK         0.0367 
     41 CB         28.7187   27.2152    6.6067 C.3       6 UNK        -0.1929 
     42 C          28.7343   28.7494    4.5436 C.2       6 UNK         0.5070 
     43 O          28.0906   29.5508    5.2237 O.2       6 UNK        -0.5237 
     44 N          29.1193   28.9899    3.2872 N.am      7 UNK        -0.4739 
     45 CA         28.9764   30.2738    2.6024 C.3       7 UNK         0.0276 
     46 CB         27.6325   30.3296    1.8560 C.3       7 UNK        -0.1927 
     47 C          30.1923   30.4961    1.6906 C.2       7 UNK         0.5013 
     48 O          31.1289   29.6905    1.7163 O.2       7 UNK        -0.5193 
     49 N          30.1911   31.6165    0.9526 N.am      8 UNK        -0.4253 
     50 CA         31.2929   32.1273    0.1268 C.3       8 UNK         0.0242 
     51 CB         31.5646   31.2023   -1.0819 C.3       8 UNK        -0.2000 
     52 C          32.5311   32.4118    0.9979 C.2       8 UNK         0.4948 
     53 O          32.5583   33.4414    1.6734 O.2       8 UNK        -0.5275 
     54 N          33.5021   31.4876    1.0084 N.am      9 UNK        -0.4246 
     55 CA         34.6474   31.4955    1.9243 C.3       9 UNK         0.0261 
     56 CB         35.6983   30.4867    1.4336 C.3       9 UNK        -0.1959 
     57 C          34.2539   31.1927    3.3835 C.2       9 UNK         0.5033 
     58 O          34.9477   31.6446    4.2962 O.2       9 UNK        -0.5390 
     59 N          33.1646   30.4291    3.5746 N.am      10 UNK        -0.4215 
     60 CA         32.4997   30.1016    4.8435 C.3       10 UNK         0.0240 
     61 CB         31.7290   31.3339    5.3604 C.3       10 UNK        -0.1982 
     62 C          33.4105   29.4836    5.9241 C.2       10 UNK         0.4970 
     63 O          33.1396   29.6562    7.1135 O.2       10 UNK        -0.4916 
     64 N          34.4663   28.7767    5.4953 N.am      11 UNK        -0.4279 
     65 CA         35.5318   28.2157    6.3463 C.3       11 UNK         0.1003 
     66 C          36.3776   29.2895    7.1023 C.2       11 UNK         0.5709 
     67 N          36.3899   30.5471    6.6722 N.am      11 UNK        -0.7358 
     68 O          37.0652   28.9778    8.0722 O.2       11 UNK        -0.4999 
     69 C69        35.0336   27.0580    7.2646 C.3       12 UNK        -0.0954 
     70 S70        34.4779   25.6127    6.3024 S.3       12 UNK        -0.2268 
     71 C71        32.6691   25.7957    6.3562 C.3       12 UNK         0.0203 
     72 H72        28.2412   23.1621   -1.6052 H         1 UNK         0.0888 
     73 H73        27.2029   23.4733   -2.9940 H         1 UNK         0.0888 
     74 H74        28.7618   22.6709   -3.2216 H         1 UNK         0.0888 
     75 H75        29.2927   24.9995   -0.9002 H         1 UNK         0.3017 
     76 H76        30.5999   26.8677   -2.7095 H         1 UNK         0.0873 
     77 H77        31.9284   26.3740   -0.8642 H         1 UNK         0.0745 
     78 H78        31.3200   27.9514   -0.5012 H         1 UNK         0.0745 
     79 H79        32.7033   25.6296    1.3123 H         1 UNK         0.0705 
     80 H80        31.7119   24.3007    0.7524 H         1 UNK         0.0705 
     81 H81        32.7014   26.3188    3.6942 H         1 UNK         0.1334 
     82 H82        31.1750   23.5108    6.5518 H         1 UNK         0.1417 
     83 H83        30.4594   22.9159    2.3619 H         1 UNK         0.1562 
     84 H84        29.7487   21.7397    5.8915 H         1 UNK         0.0748 
     85 H85        30.4821   20.9551    4.5141 H         1 UNK         0.0748 
     86 H86        28.0626   23.7024    5.3929 H         1 UNK         0.0940 
     87 H87        26.5078   23.1579    4.8577 H         1 UNK         0.0940 
     88 H88        28.3715   24.2957    2.7130 H         1 UNK         0.0703 
     89 H89        25.6495   25.1110    2.7598 H         1 UNK         0.3081 
     90 H90        24.8809   23.2998   -0.2337 H         1 UNK         0.0719 
     91 H91        23.3871   23.6420    2.4249 H         1 UNK         0.0809 
     92 H92        22.6633   23.2508    0.8645 H         1 UNK         0.0809 
     93 H93        23.7397   22.1059    1.6464 H         1 UNK         0.0809 
     94 H94        23.6905   25.6132    0.8997 H         1 UNK         0.2990 
     95 H95        23.9471   27.5879   -0.6892 H         1 UNK         0.0690 
     96 H96        24.8691   29.2135    1.0647 H         1 UNK         0.0788 
     97 H97        25.9439   27.9264    1.6200 H         1 UNK         0.0788 
     98 H98        24.2040   27.7424    1.7460 H         1 UNK         0.0788 
     99 H99        26.8226   28.3880   -0.7774 H         1 UNK         0.2993 
    100 H100       26.8148   28.5877   -4.3237 H         1 UNK         0.0949 
    101 H101       27.5017   30.5315   -2.0538 H         1 UNK         0.0767 
    102 H102       28.1952   30.5624   -3.6736 H         1 UNK         0.0767 
    103 H103       26.4791   30.8570   -3.4410 H         1 UNK         0.0767 
    104 H104       28.4028   27.1965   -3.6647 H         1 UNK         0.3013 
    105 H105       29.6030   25.6121    4.1340 H         1 UNK         0.3121 
    106 H106       30.2731   27.4411    5.1625 H         1 UNK         0.0774 
    107 H107       29.0640   28.0351    7.2377 H         1 UNK         0.0815 
    108 H108       27.6312   27.1814    6.6818 H         1 UNK         0.0815 
    109 H109       29.1144   26.2928    7.0318 H         1 UNK         0.0815 
    110 H110       29.6825   28.3103    2.7880 H         1 UNK         0.2987 
    111 H111       28.9971   31.0784    3.3407 H         1 UNK         0.0949 
    112 H112       26.7980   30.2011    2.5454 H         1 UNK         0.0806 
    113 H113       27.4849   31.2845    1.3516 H         1 UNK         0.0806 
    114 H114       27.5649   29.5478    1.1038 H         1 UNK         0.0806 
    115 H115       29.3927   32.2308    1.0272 H         1 UNK         0.3010 
    116 H116       30.9658   33.0906   -0.2680 H         1 UNK         0.0829 
    117 H117       30.6726   31.1006   -1.7007 H         1 UNK         0.0813 
    118 H118       32.3523   31.6100   -1.7167 H         1 UNK         0.0813 
    119 H119       31.8669   30.1991   -0.7856 H         1 UNK         0.0813 
    120 H120       33.3749   30.6623    0.4400 H         1 UNK         0.3038 
    121 H121       35.0932   32.4924    1.9047 H         1 UNK         0.0769 
    122 H122       36.5729   30.4867    2.0859 H         1 UNK         0.0811 
    123 H123       36.0458   30.7330    0.4300 H         1 UNK         0.0811 
    124 H124       35.3062   29.4691    1.4135 H         1 UNK         0.0811 
    125 H125       32.6627   30.1093    2.7478 H         1 UNK         0.3204 
    126 H126       31.7674   29.3321    4.6010 H         1 UNK         0.0748 
    127 H127       31.0911   31.0749    6.2066 H         1 UNK         0.0771 
    128 H128       32.4084   32.1213    5.6889 H         1 UNK         0.0771 
    129 H129       31.0836   31.7521    4.5884 H         1 UNK         0.0771 
    130 H130       34.6163   28.6990    4.5009 H         1 UNK         0.2980 
    131 H131       36.2471   27.7781    5.6491 H         1 UNK         0.0545 
    132 H132       35.8423   30.8335    5.8662 H         1 UNK         0.3459 
    133 H133       36.9497   31.2264    7.1617 H         1 UNK         0.3459 
    134 H134       34.2422   27.3917    7.9369 H         1 UNK         0.0616 
    135 H135       35.8407   26.7030    7.9072 H         1 UNK         0.0616 
    136 H136       32.3943   26.8435    6.2472 H         1 UNK         0.0634 
    137 H137       32.3051   25.4804    7.3351 H         1 UNK         0.0634 
@<TRIPOS>BOND
     1    1    2 1    
     2    1   72 1    
     3    1   73 1    
     4    1   74 1    
     5    2    3 2    
     6    2    4 am   BACKBONE|DICT|INTERRES
     7    4    5 1    
     8    4   75 1    
     9    5    6 1    
    10    5   35 1    
    11    5   76 1    
    12    6    7 1    
    13    6   77 1    
    14    6   78 1    
    15    7    8 1    
    16    8    9 1    
    17    8   79 1    
    18    8   80 1    
    19    9   10 ar   
    20    9   14 ar   
    21   10   11 ar   
    22   10   81 1    
    23   11   12 ar   
    24   11   71 1    
    25   12   13 ar   
    26   12   82 1    
    27   13   14 ar   
    28   13   15 1    
    29   14   83 1    
    30   15   16 1    
    31   15   84 1    
    32   15   85 1    
    33   16   17 1    
    34   17   18 1    
    35   17   86 1    
    36   17   87 1    
    37   18   19 1    
    38   18   37 1    
    39   18   88 1    
    40   19   20 am   BACKBONE|DICT|INTERRES
    41   19   89 1    
    42   20   21 2    
    43   20   22 1    
    44   22   23 1    
    45   22   24 1    
    46   22   90 1    
    47   23   91 1    
    48   23   92 1    
    49   23   93 1    
    50   24   25 am   BACKBONE|DICT|INTERRES
    51   24   94 1    
    52   25   26 2    
    53   25   27 1    
    54   27   28 1    
    55   27   29 1    
    56   27   95 1    
    57   28   96 1    
    58   28   97 1    
    59   28   98 1    
    60   29   30 am   BACKBONE|DICT|INTERRES
    61   29   99 1    
    62   30   31 2    
    63   30   32 1    
    64   32   33 1    
    65   32   34 1    
    66   32  100 1    
    67   33  101 1    
    68   33  102 1    
    69   33  103 1    
    70   34   35 am   BACKBONE|DICT|INTERRES
    71   34  104 1    
    72   35   36 2    
    73   37   38 2    
    74   37   39 am   BACKBONE|DICT|INTERRES
    75   39   40 1    
    76   39  105 1    
    77   40   41 1    
    78   40   42 1    
    79   40  106 1    
    80   41  107 1    
    81   41  108 1    
    82   41  109 1    
    83   42   43 2    
    84   42   44 am   BACKBONE|DICT|INTERRES
    85   44   45 1    
    86   44  110 1    
    87   45   46 1    
    88   45   47 1    
    89   45  111 1    
    90   46  112 1    
    91   46  113 1    
    92   46  114 1    
    93   47   48 2    
    94   47   49 am   BACKBONE|DICT|INTERRES
    95   49   50 1    
    96   49  115 1    
    97   50   51 1    
    98   50   52 1    
    99   50  116 1    
   100   51  117 1    
   101   51  118 1    
   102   51  119 1    
   103   52   53 2    
   104   52   54 am   BACKBONE|DICT|INTERRES
   105   54   55 1    
   106   54  120 1    
   107   55   56 1    
   108   55   57 1    
   109   55  121 1    
   110   56  122 1    
   111   56  123 1    
   112   56  124 1    
   113   57   58 2    
   114   57   59 am   BACKBONE|DICT|INTERRES
   115   59   60 1    
   116   59  125 1    
   117   60   61 1    
   118   60   62 1    
   119   60  126 1    
   120   61  127 1    
   121   61  128 1    
   122   61  129 1    
   123   62   63 2    
   124   62   64 am   BACKBONE|DICT|INTERRES
   125   64   65 1    
   126   64  130 1    
   127   65   66 1    
   128   65   69 1    
   129   65  131 1    
   130   66   67 am   BACKBONE|DICT|INTERRES
   131   66   68 2    
   132   67  132 1    
   133   67  133 1    
   134   69   70 1    
   135   69  134 1    
   136   69  135 1    
   137   70   71 1    
   138   71  136 1    
   139   71  137 1    
@<TRIPOS>SUBSTRUCTURE
     1 UNK         1 GROUP             0       ****    0 ROOT    
