@<TRIPOS>MOLECULE
3R136
137   139    1
SMALL
USER_CHARGES


@<TRIPOS>ATOM
      1 CA         27.2145   17.2211    1.1425 C.3       0 UNK        -0.1979 
      2 C          27.1697   18.6898    0.7463 C.2       0 UNK         0.4864 
      3 O          26.1667   19.1433    0.1922 O.2       0 UNK        -0.5359 
      4 N          28.2512   19.4310    1.0169 N.am      1 UNK        -0.4318 
      5 CA         28.3622   20.8734    0.7803 C.3       1 UNK         0.0824 
      6 C6         29.8424   21.3177    0.6522 C.3       12 UNK        -0.0944 
      7 S7         30.8767   20.9344    2.1093 S.3       12 UNK        -0.2672 
      8 C8         32.5304   21.3905    1.4979 C.3       12 UNK         0.0333 
      9 C9         32.6243   22.8747    1.1741 C.ar      12 UNK        -0.0807 
     10 C10        32.7219   23.8140    2.2047 C.ar      12 UNK        -0.0894 
     11 C11        32.7929   25.1808    1.9169 C.ar      12 UNK        -0.0804 
     12 C12        32.7669   25.6038    0.5848 C.ar      12 UNK        -0.0824 
     13 C13        32.6548   24.6741   -0.4543 C.ar      12 UNK        -0.0762 
     14 C14        32.5999   23.3100   -0.1541 C.ar      12 UNK        -0.0782 
     15 C15        32.5624   25.1464   -1.8993 C.3       12 UNK         0.0230 
     16 S16        30.9530   24.7422   -2.6616 S.3       12 UNK        -0.2608 
     17 C17        29.7707   25.5478   -1.5262 C.3       12 UNK        -0.0989 
     18 CA         29.1572   26.8662   -2.0569 C.3       5 UNK         0.0716 
     19 N          27.9616   27.2070   -1.2816 N.am      5 UNK        -0.4135 
     20 C          27.0616   28.1471   -1.6055 C.2       4 UNK         0.5031 
     21 O          27.0843   28.7730   -2.6658 O.2       4 UNK        -0.5229 
     22 CA         25.9502   28.4580   -0.5791 C.3       4 UNK         0.0329 
     23 CB         24.6153   27.8455   -1.0339 C.3       4 UNK        -0.2001 
     24 N          26.2350   28.0102    0.7894 N.am      4 UNK        -0.4303 
     25 C          27.2694   28.4122    1.5426 C.2       3 UNK         0.5044 
     26 O          28.0847   29.2570    1.1801 O.2       3 UNK        -0.5152 
     27 CA         27.4714   27.7101    2.8983 C.3       3 UNK         0.0319 
     28 CB         26.8162   28.5263    4.0232 C.3       3 UNK        -0.2001 
     29 N          26.9939   26.3208    2.9625 N.am      3 UNK        -0.4354 
     30 C          27.3266   25.3345    2.1166 C.2       2 UNK         0.4964 
     31 O          28.0349   25.4910    1.1180 O.2       2 UNK        -0.5047 
     32 CA         26.7228   23.9556    2.4064 C.3       2 UNK         0.0288 
     33 CB         25.2051   23.9428    2.1425 C.3       2 UNK        -0.2113 
     34 N          27.3748   22.9755    1.5436 N.am      2 UNK        -0.4145 
     35 C          27.5911   21.6908    1.8422 C.2       1 UNK         0.5006 
     36 O          27.2244   21.1642    2.8978 O.2       1 UNK        -0.5103 
     37 C          30.1943   28.0155   -2.0828 C.2       5 UNK         0.5055 
     38 O          30.9406   28.1282   -3.0571 O.2       5 UNK        -0.5220 
     39 N          30.2242   28.8524   -1.0367 N.am      6 UNK        -0.4450 
     40 CA         31.1165   30.0012   -0.9152 C.3       6 UNK         0.0367 
     41 CB         32.4053   29.5937   -0.1692 C.3       6 UNK        -0.1929 
     42 C          30.3285   31.1318   -0.2464 C.2       6 UNK         0.5070 
     43 O          29.5691   31.8218   -0.9278 O.2       6 UNK        -0.5237 
     44 N          30.4942   31.2822    1.0694 N.am      7 UNK        -0.4739 
     45 CA         29.7194   32.1659    1.9295 C.3       7 UNK         0.0276 
     46 CB         30.3132   33.5861    1.8978 C.3       7 UNK        -0.1927 
     47 C          29.7701   31.5884    3.3447 C.2       7 UNK         0.5013 
     48 O          30.7430   30.9094    3.6859 O.2       7 UNK        -0.5193 
     49 N          28.7741   31.9229    4.1753 N.am      8 UNK        -0.4253 
     50 CA         28.7200   31.5331    5.5909 C.3       8 UNK         0.0242 
     51 CB         27.3768   31.9686    6.1971 C.3       8 UNK        -0.2000 
     52 C          29.8959   32.0823    6.4192 C.2       8 UNK         0.4948 
     53 O          30.3520   31.4096    7.3421 O.2       8 UNK        -0.5275 
     54 N          30.4028   33.2634    6.0381 N.am      9 UNK        -0.4246 
     55 CA         31.6109   33.8732    6.5979 C.3       9 UNK         0.0261 
     56 CB         31.7010   35.3336    6.1255 C.3       9 UNK        -0.1959 
     57 C          32.9065   33.1151    6.2467 C.2       9 UNK         0.5033 
     58 O          33.8841   33.2406    6.9857 O.2       9 UNK        -0.5390 
     59 N          32.9027   32.3583    5.1394 N.am      10 UNK        -0.4215 
     60 CA         34.0219   31.5233    4.7057 C.3       10 UNK         0.0240 
     61 CB         34.0793   31.4782    3.1680 C.3       10 UNK        -0.1982 
     62 C          33.9080   30.1111    5.2954 C.2       10 UNK         0.4970 
     63 O          34.8904   29.6098    5.8437 O.2       10 UNK        -0.4916 
     64 N          32.7238   29.4964    5.1699 N.am      11 UNK        -0.4279 
     65 CA         32.4492   28.1368    5.6568 C.3       11 UNK         0.1003 
     66 C          32.2985   28.0147    7.1988 C.2       11 UNK         0.5709 
     67 N          31.9335   29.0632    7.9248 N.am      11 UNK        -0.7358 
     68 O          32.5327   26.9422    7.7507 O.2       11 UNK        -0.4999 
     69 C69        31.2450   27.4849    4.9263 C.3       12 UNK        -0.0954 
     70 S70        31.4757   27.3146    3.1238 S.3       12 UNK        -0.2268 
     71 C71        32.9113   26.1939    3.0463 C.3       12 UNK         0.0203 
     72 H72        28.1633   16.9533    1.6072 H         1 UNK         0.0888 
     73 H73        27.0773   16.5907    0.2644 H         1 UNK         0.0888 
     74 H74        26.4161   16.9995    1.8503 H         1 UNK         0.0888 
     75 H75        29.0327   19.0183    1.5062 H         1 UNK         0.3017 
     76 H76        27.8814   21.0838   -0.1780 H         1 UNK         0.0873 
     77 H77        29.9029   22.3888    0.4500 H         1 UNK         0.0745 
     78 H78        30.2886   20.8314   -0.2169 H         1 UNK         0.0745 
     79 H79        33.2709   21.1372    2.2579 H         1 UNK         0.0705 
     80 H80        32.7717   20.7852    0.6226 H         1 UNK         0.0705 
     81 H81        32.7352   23.4759    3.2320 H         1 UNK         0.1334 
     82 H82        32.8108   26.6606    0.3625 H         1 UNK         0.1417 
     83 H83        32.5088   22.5908   -0.9570 H         1 UNK         0.1562 
     84 H84        33.3568   24.6768   -2.4808 H         1 UNK         0.0748 
     85 H85        32.7290   26.2224   -1.9685 H         1 UNK         0.0748 
     86 H86        30.2105   25.7003   -0.5401 H         1 UNK         0.0940 
     87 H87        28.9743   24.8186   -1.3694 H         1 UNK         0.0940 
     88 H88        28.8324   26.7010   -3.0865 H         1 UNK         0.0703 
     89 H89        27.8631   26.7234   -0.3932 H         1 UNK         0.3081 
     90 H90        25.8386   29.5438   -0.5502 H         1 UNK         0.0719 
     91 H91        24.6585   26.7558   -1.0567 H         1 UNK         0.0809 
     92 H92        23.7981   28.1370   -0.3739 H         1 UNK         0.0809 
     93 H93        24.3523   28.1820   -2.0379 H         1 UNK         0.0809 
     94 H94        25.6230   27.3037    1.1703 H         1 UNK         0.2990 
     95 H95        28.5466   27.6873    3.0809 H         1 UNK         0.0690 
     96 H96        27.1032   28.1514    5.0058 H         1 UNK         0.0788 
     97 H97        25.7278   28.5054    3.9569 H         1 UNK         0.0788 
     98 H98        27.1226   29.5712    3.9749 H         1 UNK         0.0788 
     99 H99        26.3901   26.0974    3.7408 H         1 UNK         0.2993 
    100 H100       26.9215   23.7135    3.4530 H         1 UNK         0.0949 
    101 H101       24.6819   24.6486    2.7886 H         1 UNK         0.0767 
    102 H102       24.9741   24.2085    1.1100 H         1 UNK         0.0767 
    103 H103       24.7797   22.9576    2.3351 H         1 UNK         0.0767 
    104 H104       27.7755   23.3757    0.7046 H         1 UNK         0.3013 
    105 H105       29.5242   28.7658   -0.3055 H         1 UNK         0.3121 
    106 H106       31.3959   30.3663   -1.9060 H         1 UNK         0.0774 
    107 H107       32.9878   28.8871   -0.7603 H         1 UNK         0.0815 
    108 H108       32.1956   29.1245    0.7921 H         1 UNK         0.0815 
    109 H109       33.0440   30.4589    0.0137 H         1 UNK         0.0815 
    110 H110       31.0857   30.6366    1.5780 H         1 UNK         0.2987 
    111 H111       28.6804   32.1803    1.5919 H         1 UNK         0.0949 
    112 H112       31.3509   33.5966    2.2345 H         1 UNK         0.0806 
    113 H113       30.2864   34.0039    0.8914 H         1 UNK         0.0806 
    114 H114       29.7513   34.2639    2.5414 H         1 UNK         0.0806 
    115 H115       28.0151   32.4929    3.8291 H         1 UNK         0.3010 
    116 H116       28.7794   30.4434    5.6363 H         1 UNK         0.0829 
    117 H117       26.5370   31.5091    5.6755 H         1 UNK         0.0813 
    118 H118       27.3072   31.6692    7.2439 H         1 UNK         0.0813 
    119 H119       27.2462   33.0508    6.1585 H         1 UNK         0.0813 
    120 H120       29.9520   33.7554    5.2809 H         1 UNK         0.3038 
    121 H121       31.5161   33.8700    7.6861 H         1 UNK         0.0769 
    122 H122       31.7826   35.4038    5.0400 H         1 UNK         0.0811 
    123 H123       32.5766   35.8272    6.5500 H         1 UNK         0.0811 
    124 H124       30.8273   35.9069    6.4360 H         1 UNK         0.0811 
    125 H125       32.0382   32.2475    4.6245 H         1 UNK         0.3204 
    126 H126       34.9597   31.9598    5.0569 H         1 UNK         0.0748 
    127 H127       34.1831   32.4783    2.7467 H         1 UNK         0.0771 
    128 H128       34.9360   30.8939    2.8296 H         1 UNK         0.0771 
    129 H129       33.1887   31.0247    2.7337 H         1 UNK         0.0771 
    130 H130       31.9658   29.9611    4.6758 H         1 UNK         0.2980 
    131 H131       33.3305   27.5394    5.4194 H         1 UNK         0.0545 
    132 H132       31.8533   28.9568    8.9229 H         1 UNK         0.3459 
    133 H133       31.6376   29.9329    7.4950 H         1 UNK         0.3459 
    134 H134       31.0407   26.4895    5.3255 H         1 UNK         0.0616 
    135 H135       30.3404   28.0719    5.0960 H         1 UNK         0.0616 
    136 H136       33.0223   25.6736    3.9987 H         1 UNK         0.0634 
    137 H137       33.8169   26.7871    2.9113 H         1 UNK         0.0634 
@<TRIPOS>BOND
     1    1    2 1    
     2    1   72 1    
     3    1   73 1    
     4    1   74 1    
     5    2    3 2    
     6    2    4 am   BACKBONE|DICT|INTERRES
     7    4    5 1    
     8    4   75 1    
     9    5    6 1    
    10    5   35 1    
    11    5   76 1    
    12    6    7 1    
    13    6   77 1    
    14    6   78 1    
    15    7    8 1    
    16    8    9 1    
    17    8   79 1    
    18    8   80 1    
    19    9   10 ar   
    20    9   14 ar   
    21   10   11 ar   
    22   10   81 1    
    23   11   12 ar   
    24   11   71 1    
    25   12   13 ar   
    26   12   82 1    
    27   13   14 ar   
    28   13   15 1    
    29   14   83 1    
    30   15   16 1    
    31   15   84 1    
    32   15   85 1    
    33   16   17 1    
    34   17   18 1    
    35   17   86 1    
    36   17   87 1    
    37   18   19 1    
    38   18   37 1    
    39   18   88 1    
    40   19   20 am   BACKBONE|DICT|INTERRES
    41   19   89 1    
    42   20   21 2    
    43   20   22 1    
    44   22   23 1    
    45   22   24 1    
    46   22   90 1    
    47   23   91 1    
    48   23   92 1    
    49   23   93 1    
    50   24   25 am   BACKBONE|DICT|INTERRES
    51   24   94 1    
    52   25   26 2    
    53   25   27 1    
    54   27   28 1    
    55   27   29 1    
    56   27   95 1    
    57   28   96 1    
    58   28   97 1    
    59   28   98 1    
    60   29   30 am   BACKBONE|DICT|INTERRES
    61   29   99 1    
    62   30   31 2    
    63   30   32 1    
    64   32   33 1    
    65   32   34 1    
    66   32  100 1    
    67   33  101 1    
    68   33  102 1    
    69   33  103 1    
    70   34   35 am   BACKBONE|DICT|INTERRES
    71   34  104 1    
    72   35   36 2    
    73   37   38 2    
    74   37   39 am   BACKBONE|DICT|INTERRES
    75   39   40 1    
    76   39  105 1    
    77   40   41 1    
    78   40   42 1    
    79   40  106 1    
    80   41  107 1    
    81   41  108 1    
    82   41  109 1    
    83   42   43 2    
    84   42   44 am   BACKBONE|DICT|INTERRES
    85   44   45 1    
    86   44  110 1    
    87   45   46 1    
    88   45   47 1    
    89   45  111 1    
    90   46  112 1    
    91   46  113 1    
    92   46  114 1    
    93   47   48 2    
    94   47   49 am   BACKBONE|DICT|INTERRES
    95   49   50 1    
    96   49  115 1    
    97   50   51 1    
    98   50   52 1    
    99   50  116 1    
   100   51  117 1    
   101   51  118 1    
   102   51  119 1    
   103   52   53 2    
   104   52   54 am   BACKBONE|DICT|INTERRES
   105   54   55 1    
   106   54  120 1    
   107   55   56 1    
   108   55   57 1    
   109   55  121 1    
   110   56  122 1    
   111   56  123 1    
   112   56  124 1    
   113   57   58 2    
   114   57   59 am   BACKBONE|DICT|INTERRES
   115   59   60 1    
   116   59  125 1    
   117   60   61 1    
   118   60   62 1    
   119   60  126 1    
   120   61  127 1    
   121   61  128 1    
   122   61  129 1    
   123   62   63 2    
   124   62   64 am   BACKBONE|DICT|INTERRES
   125   64   65 1    
   126   64  130 1    
   127   65   66 1    
   128   65   69 1    
   129   65  131 1    
   130   66   67 am   BACKBONE|DICT|INTERRES
   131   66   68 2    
   132   67  132 1    
   133   67  133 1    
   134   69   70 1    
   135   69  134 1    
   136   69  135 1    
   137   70   71 1    
   138   71  136 1    
   139   71  137 1    
@<TRIPOS>SUBSTRUCTURE
     1 UNK         1 GROUP             0       ****    0 ROOT    
