@<TRIPOS>MOLECULE
3R136
137   139    1
SMALL
USER_CHARGES


@<TRIPOS>ATOM
      1 CA         28.0687   22.5636    6.3463 C.3       0 UNK        -0.1979 
      2 C          28.1277   23.1452    4.9415 C.2       0 UNK         0.4864 
      3 O          27.7489   24.3009    4.7492 O.2       0 UNK        -0.5359 
      4 N          28.6059   22.3517    3.9709 N.am      1 UNK        -0.4318 
      5 CA         28.7473   22.6956    2.5480 C.3       1 UNK         0.0824 
      6 C6         29.8292   23.7808    2.2829 C.3       12 UNK        -0.0944 
      7 S7         31.4781   23.2474    2.8462 S.3       12 UNK        -0.2672 
      8 C8         32.3377   22.9727    1.2651 C.3       12 UNK         0.0333 
      9 C9         32.6735   24.2737    0.5453 C.ar      12 UNK        -0.0807 
     10 C10        33.5104   25.2146    1.1528 C.ar      12 UNK        -0.0894 
     11 C11        33.8750   26.3832    0.4794 C.ar      12 UNK        -0.0804 
     12 C12        33.4007   26.6061   -0.8169 C.ar      12 UNK        -0.0824 
     13 C13        32.5588   25.6754   -1.4377 C.ar      12 UNK        -0.0762 
     14 C14        32.1930   24.5147   -0.7467 C.ar      12 UNK        -0.0782 
     15 C15        32.1102   25.8808   -2.8813 C.3       12 UNK         0.0230 
     16 S16        31.2910   27.4827   -3.1641 S.3       12 UNK        -0.2608 
     17 C17        29.6007   27.1503   -2.5692 C.3       12 UNK        -0.0989 
     18 CA         28.7491   28.4479   -2.5459 C.3       5 UNK         0.0716 
     19 N          27.3152   28.1729   -2.4946 N.am      5 UNK        -0.4135 
     20 C          26.3820   28.8739   -3.1560 C.2       4 UNK         0.5031 
     21 O          26.6335   29.7022   -4.0324 O.2       4 UNK        -0.5229 
     22 CA         24.9103   28.6333   -2.7646 C.3       4 UNK         0.0329 
     23 CB         24.2814   27.5606   -3.6685 C.3       4 UNK        -0.2001 
     24 N          24.7412   28.2428   -1.3630 N.am      4 UNK        -0.4303 
     25 C          25.0618   28.9996   -0.3024 C.2       3 UNK         0.5044 
     26 O          25.4054   30.1789   -0.3808 O.2       3 UNK        -0.5152 
     27 CA         25.0348   28.3179    1.0796 C.3       3 UNK         0.0319 
     28 CB         23.7909   28.7498    1.8721 C.3       3 UNK        -0.2001 
     29 N          25.0981   26.8503    1.0435 N.am      3 UNK        -0.4354 
     30 C          26.1061   26.1293    0.5340 C.2       2 UNK         0.4964 
     31 O          27.0852   26.6138   -0.0388 O.2       2 UNK        -0.5047 
     32 CA         25.9894   24.6113    0.6361 C.3       2 UNK         0.0288 
     33 CB         25.7490   23.9813   -0.7480 C.3       2 UNK        -0.2113 
     34 N          27.2369   24.1244    1.2078 N.am      2 UNK        -0.4145 
     35 C          27.3659   23.0031    1.9255 C.2       1 UNK         0.5006 
     36 O          26.4413   22.2056    2.1061 O.2       1 UNK        -0.5103 
     37 C          29.0890   29.3675   -1.3601 C.2       5 UNK         0.5055 
     38 O          29.4048   30.5401   -1.5687 O.2       5 UNK        -0.5220 
     39 N          28.9714   28.8195   -0.1452 N.am      6 UNK        -0.4450 
     40 CA         29.2186   29.4392    1.1516 C.3       6 UNK         0.0367 
     41 CB         30.6396   30.0274    1.2399 C.3       6 UNK        -0.1929 
     42 C          29.0318   28.3508    2.2137 C.2       6 UNK         0.5070 
     43 O          29.3672   27.1891    1.9710 O.2       6 UNK        -0.5237 
     44 N          28.5029   28.7388    3.3773 N.am      7 UNK        -0.4739 
     45 CA         28.2327   27.8468    4.5047 C.3       7 UNK         0.0276 
     46 CB         27.1282   28.4746    5.3749 C.3       7 UNK        -0.1927 
     47 C          29.5094   27.5308    5.3087 C.2       7 UNK         0.5013 
     48 O          29.6670   28.0362    6.4224 O.2       7 UNK        -0.5193 
     49 N          30.3978   26.7182    4.7176 N.am      8 UNK        -0.4253 
     50 CA         31.6156   26.1244    5.2895 C.3       8 UNK         0.0242 
     51 CB         31.2488   24.9728    6.2502 C.3       8 UNK        -0.2000 
     52 C          32.5636   27.1530    5.9295 C.2       8 UNK         0.4948 
     53 O          33.3914   27.7309    5.2275 O.2       8 UNK        -0.5275 
     54 N          32.4084   27.3934    7.2406 N.am      9 UNK        -0.4246 
     55 CA         33.1349   28.4020    8.0211 C.3       9 UNK         0.0261 
     56 CB         32.6828   28.3290    9.4880 C.3       9 UNK        -0.1959 
     57 C          32.9872   29.8381    7.4824 C.2       9 UNK         0.5033 
     58 O          33.8817   30.6563    7.7036 O.2       9 UNK        -0.5390 
     59 N          31.9030   30.1051    6.7376 N.am      10 UNK        -0.4215 
     60 CA         31.6756   31.3396    5.9802 C.3       10 UNK         0.0240 
     61 CB         30.2874   31.2792    5.3264 C.3       10 UNK        -0.1982 
     62 C          32.7544   31.6493    4.9200 C.2       10 UNK         0.4970 
     63 O          32.8827   32.8130    4.5376 O.2       10 UNK        -0.4916 
     64 N          33.5196   30.6380    4.4800 N.am      11 UNK        -0.4279 
     65 CA         34.7117   30.8098    3.6325 C.3       11 UNK         0.1003 
     66 C          35.9136   31.4917    4.3533 C.2       11 UNK         0.5709 
     67 N          35.9271   31.6140    5.6770 N.am      11 UNK        -0.7358 
     68 O          36.8540   31.9268    3.6926 O.2       11 UNK        -0.4999 
     69 C69        35.1640   29.4769    2.9780 C.3       12 UNK        -0.0954 
     70 S70        33.8529   28.6809    1.9983 S.3       12 UNK        -0.2268 
     71 C71        34.8006   27.3879    1.1480 C.3       12 UNK         0.0203 
     72 H72        27.0351   22.5145    6.6877 H         1 UNK         0.0888 
     73 H73        28.4903   21.5596    6.3911 H         1 UNK         0.0888 
     74 H74        28.6260   23.1957    7.0370 H         1 UNK         0.0888 
     75 H75        28.8766   21.4071    4.2048 H         1 UNK         0.3017 
     76 H76        29.0792   21.7825    2.0513 H         1 UNK         0.0873 
     77 H77        29.5791   24.7065    2.8003 H         1 UNK         0.0745 
     78 H78        29.8902   24.0289    1.2221 H         1 UNK         0.0745 
     79 H79        31.7323   22.3172    0.6372 H         1 UNK         0.0705 
     80 H80        33.2656   22.4344    1.4630 H         1 UNK         0.0705 
     81 H81        33.8840   25.0318    2.1513 H         1 UNK         0.1334 
     82 H82        33.6945   27.5015   -1.3476 H         1 UNK         0.1417 
     83 H83        31.5594   23.7818   -1.2276 H         1 UNK         0.1562 
     84 H84        31.4478   25.0776   -3.2081 H         1 UNK         0.0748 
     85 H85        32.9908   25.8274   -3.5227 H         1 UNK         0.0748 
     86 H86        29.6368   26.6558   -1.5963 H         1 UNK         0.0940 
     87 H87        29.1519   26.4291   -3.2543 H         1 UNK         0.0940 
     88 H88        28.9683   29.0008   -3.4623 H         1 UNK         0.0703 
     89 H89        27.0183   27.5455   -1.7538 H         1 UNK         0.3081 
     90 H90        24.3717   29.5711   -2.9159 H         1 UNK         0.0719 
     91 H91        24.3710   27.8365   -4.7203 H         1 UNK         0.0809 
     92 H92        24.7657   26.5911   -3.5439 H         1 UNK         0.0809 
     93 H93        23.2190   27.4363   -3.4581 H         1 UNK         0.0809 
     94 H94        24.4454   27.2936   -1.1897 H         1 UNK         0.2990 
     95 H95        25.9177   28.6658    1.6197 H         1 UNK         0.0690 
     96 H96        23.7305   29.8368    1.9437 H         1 UNK         0.0788 
     97 H97        23.8147   28.3627    2.8911 H         1 UNK         0.0788 
     98 H98        22.8708   28.4028    1.4001 H         1 UNK         0.0788 
     99 H99        24.3255   26.3633    1.4757 H         1 UNK         0.2993 
    100 H100       25.1600   24.3575    1.3004 H         1 UNK         0.0949 
    101 H101       25.6568   22.8972   -0.6792 H         1 UNK         0.0767 
    102 H102       24.8274   24.3565   -1.1946 H         1 UNK         0.0767 
    103 H103       26.5632   24.2034   -1.4394 H         1 UNK         0.0767 
    104 H104       28.0158   24.7672    1.1289 H         1 UNK         0.3013 
    105 H105       28.6549   27.8550   -0.0665 H         1 UNK         0.3121 
    106 H106       28.4786   30.2264    1.3070 H         1 UNK         0.0774 
    107 H107       31.3707   29.3287    0.8354 H         1 UNK         0.0815 
    108 H108       30.7252   30.9578    0.6796 H         1 UNK         0.0815 
    109 H109       30.9265   30.2478    2.2686 H         1 UNK         0.0815 
    110 H110       28.2738   29.7130    3.5118 H         1 UNK         0.2987 
    111 H111       27.8468   26.8994    4.1207 H         1 UNK         0.0949 
    112 H112       26.8891   27.8299    6.2219 H         1 UNK         0.0806 
    113 H113       27.4275   29.4433    5.7767 H         1 UNK         0.0806 
    114 H114       26.2081   28.6147    4.8071 H         1 UNK         0.0806 
    115 H115       30.2030   26.4712    3.7525 H         1 UNK         0.3010 
    116 H116       32.1666   25.6926    4.4527 H         1 UNK         0.0829 
    117 H117       30.5573   25.2864    7.0327 H         1 UNK         0.0813 
    118 H118       30.7792   24.1544    5.7067 H         1 UNK         0.0813 
    119 H119       32.1365   24.5613    6.7327 H         1 UNK         0.0813 
    120 H120       31.6612   26.9084    7.7168 H         1 UNK         0.3038 
    121 H121       34.1956   28.1478    7.9732 H         1 UNK         0.0769 
    122 H122       31.6186   28.5444    9.5930 H         1 UNK         0.0811 
    123 H123       33.2240   29.0525   10.0996 H         1 UNK         0.0811 
    124 H124       32.8711   27.3432    9.9139 H         1 UNK         0.0811 
    125 H125       31.2086   29.3704    6.6325 H         1 UNK         0.3204 
    126 H126       31.6823   32.1640    6.6960 H         1 UNK         0.0748 
    127 H127       30.0589   32.2079    4.8016 H         1 UNK         0.0771 
    128 H128       30.2324   30.4704    4.6001 H         1 UNK         0.0771 
    129 H129       29.5031   31.1224    6.0674 H         1 UNK         0.0771 
    130 H130       33.3586   29.6940    4.8178 H         1 UNK         0.2980 
    131 H131       34.4302   31.4851    2.8223 H         1 UNK         0.0545 
    132 H132       36.7137   32.0624    6.1185 H         1 UNK         0.3459 
    133 H133       35.1640   31.2650    6.2466 H         1 UNK         0.3459 
    134 H134       35.4980   28.7713    3.7409 H         1 UNK         0.0616 
    135 H135       36.0171   29.6473    2.3184 H         1 UNK         0.0616 
    136 H136       35.4584   27.8477    0.4090 H         1 UNK         0.0634 
    137 H137       35.4461   26.8812    1.8672 H         1 UNK         0.0634 
@<TRIPOS>BOND
     1    1    2 1    
     2    1   72 1    
     3    1   73 1    
     4    1   74 1    
     5    2    3 2    
     6    2    4 am   BACKBONE|DICT|INTERRES
     7    4    5 1    
     8    4   75 1    
     9    5    6 1    
    10    5   35 1    
    11    5   76 1    
    12    6    7 1    
    13    6   77 1    
    14    6   78 1    
    15    7    8 1    
    16    8    9 1    
    17    8   79 1    
    18    8   80 1    
    19    9   10 ar   
    20    9   14 ar   
    21   10   11 ar   
    22   10   81 1    
    23   11   12 ar   
    24   11   71 1    
    25   12   13 ar   
    26   12   82 1    
    27   13   14 ar   
    28   13   15 1    
    29   14   83 1    
    30   15   16 1    
    31   15   84 1    
    32   15   85 1    
    33   16   17 1    
    34   17   18 1    
    35   17   86 1    
    36   17   87 1    
    37   18   19 1    
    38   18   37 1    
    39   18   88 1    
    40   19   20 am   BACKBONE|DICT|INTERRES
    41   19   89 1    
    42   20   21 2    
    43   20   22 1    
    44   22   23 1    
    45   22   24 1    
    46   22   90 1    
    47   23   91 1    
    48   23   92 1    
    49   23   93 1    
    50   24   25 am   BACKBONE|DICT|INTERRES
    51   24   94 1    
    52   25   26 2    
    53   25   27 1    
    54   27   28 1    
    55   27   29 1    
    56   27   95 1    
    57   28   96 1    
    58   28   97 1    
    59   28   98 1    
    60   29   30 am   BACKBONE|DICT|INTERRES
    61   29   99 1    
    62   30   31 2    
    63   30   32 1    
    64   32   33 1    
    65   32   34 1    
    66   32  100 1    
    67   33  101 1    
    68   33  102 1    
    69   33  103 1    
    70   34   35 am   BACKBONE|DICT|INTERRES
    71   34  104 1    
    72   35   36 2    
    73   37   38 2    
    74   37   39 am   BACKBONE|DICT|INTERRES
    75   39   40 1    
    76   39  105 1    
    77   40   41 1    
    78   40   42 1    
    79   40  106 1    
    80   41  107 1    
    81   41  108 1    
    82   41  109 1    
    83   42   43 2    
    84   42   44 am   BACKBONE|DICT|INTERRES
    85   44   45 1    
    86   44  110 1    
    87   45   46 1    
    88   45   47 1    
    89   45  111 1    
    90   46  112 1    
    91   46  113 1    
    92   46  114 1    
    93   47   48 2    
    94   47   49 am   BACKBONE|DICT|INTERRES
    95   49   50 1    
    96   49  115 1    
    97   50   51 1    
    98   50   52 1    
    99   50  116 1    
   100   51  117 1    
   101   51  118 1    
   102   51  119 1    
   103   52   53 2    
   104   52   54 am   BACKBONE|DICT|INTERRES
   105   54   55 1    
   106   54  120 1    
   107   55   56 1    
   108   55   57 1    
   109   55  121 1    
   110   56  122 1    
   111   56  123 1    
   112   56  124 1    
   113   57   58 2    
   114   57   59 am   BACKBONE|DICT|INTERRES
   115   59   60 1    
   116   59  125 1    
   117   60   61 1    
   118   60   62 1    
   119   60  126 1    
   120   61  127 1    
   121   61  128 1    
   122   61  129 1    
   123   62   63 2    
   124   62   64 am   BACKBONE|DICT|INTERRES
   125   64   65 1    
   126   64  130 1    
   127   65   66 1    
   128   65   69 1    
   129   65  131 1    
   130   66   67 am   BACKBONE|DICT|INTERRES
   131   66   68 2    
   132   67  132 1    
   133   67  133 1    
   134   69   70 1    
   135   69  134 1    
   136   69  135 1    
   137   70   71 1    
   138   71  136 1    
   139   71  137 1    
@<TRIPOS>SUBSTRUCTURE
     1 UNK         1 GROUP             0       ****    0 ROOT    
