@<TRIPOS>MOLECULE
3R136
137   139    1
SMALL
USER_CHARGES


@<TRIPOS>ATOM
      1 CA         25.7812   19.1612   -0.2913 C.3       0 UNK        -0.1979 
      2 C          26.4353   20.2169   -1.1706 C.2       0 UNK         0.4864 
      3 O          26.1296   20.2958   -2.3616 O.2       0 UNK        -0.5359 
      4 N          27.3381   21.0222   -0.5959 N.am      1 UNK        -0.4318 
      5 CA         28.0134   22.1339   -1.2698 C.3       1 UNK         0.0824 
      6 C6         29.2432   22.6078   -0.4554 C.3       12 UNK        -0.0944 
      7 S7         30.3457   23.7150   -1.4021 S.3       12 UNK        -0.2672 
      8 C8         31.9764   23.3135   -0.6999 C.3       12 UNK         0.0333 
      9 C9         32.1240   23.8275    0.7254 C.ar      12 UNK        -0.0807 
     10 C10        32.6043   25.1190    0.9657 C.ar      12 UNK        -0.0894 
     11 C11        32.7595   25.5871    2.2750 C.ar      12 UNK        -0.0804 
     12 C12        32.4457   24.7463    3.3468 C.ar      12 UNK        -0.0824 
     13 C13        31.9136   23.4751    3.1175 C.ar      12 UNK        -0.0762 
     14 C14        31.7785   23.0119    1.8063 C.ar      12 UNK        -0.0782 
     15 C15        31.4423   22.6120    4.2772 C.3       12 UNK         0.0230 
     16 S16        29.6275   22.6870    4.4460 S.3       12 UNK        -0.2608 
     17 C17        29.3775   24.2347    5.3863 C.3       12 UNK        -0.0989 
     18 CA         29.2188   25.5022    4.4999 C.3       5 UNK         0.0716 
     19 N          28.2031   25.3824    3.4541 N.am      5 UNK        -0.4135 
     20 C          26.8723   25.3902    3.6012 C.2       4 UNK         0.5031 
     21 O          26.3011   25.3179    4.6904 O.2       4 UNK        -0.5229 
     22 CA         26.0385   25.5451    2.3098 C.3       4 UNK         0.0329 
     23 CB         24.8342   26.4860    2.5220 C.3       4 UNK        -0.2001 
     24 N          26.8051   25.9697    1.1248 N.am      4 UNK        -0.4303 
     25 C          27.5320   27.0919    0.9730 C.2       3 UNK         0.5044 
     26 O          27.7063   27.9151    1.8739 O.2       3 UNK        -0.5152 
     27 CA         28.2625   27.3096   -0.3662 C.3       3 UNK         0.0319 
     28 CB         29.7816   27.2211   -0.1476 C.3       3 UNK        -0.2001 
     29 N          27.8794   26.3589   -1.4104 N.am      3 UNK        -0.4354 
     30 C          26.7201   26.3790   -2.0855 C.2       2 UNK         0.4964 
     31 O          25.8770   27.2682   -1.9699 O.2       2 UNK        -0.5047 
     32 CA         26.4357   25.1880   -3.0222 C.3       2 UNK         0.0288 
     33 CB         26.7553   25.5612   -4.4789 C.3       2 UNK        -0.2113 
     34 N          27.1697   23.9676   -2.6651 N.am      2 UNK        -0.4145 
     35 C          27.0302   23.2962   -1.5125 C.2       1 UNK         0.5006 
     36 O          26.2285   23.6130   -0.6291 O.2       1 UNK        -0.5103 
     37 C          29.0730   26.8039    5.3237 C.2       5 UNK         0.5055 
     38 O          29.3457   26.7908    6.5263 O.2       5 UNK        -0.5220 
     39 N          28.6454   27.9020    4.6783 N.am      6 UNK        -0.4450 
     40 CA         28.3967   29.1822    5.3441 C.3       6 UNK         0.0367 
     41 CB         26.9710   29.1862    5.9271 C.3       6 UNK        -0.1929 
     42 C          28.6141   30.4194    4.4592 C.2       6 UNK         0.5070 
     43 O          28.8227   31.4944    5.0192 O.2       6 UNK        -0.5237 
     44 N          28.5174   30.2998    3.1273 N.am      7 UNK        -0.4739 
     45 CA         28.5479   31.4515    2.2208 C.3       7 UNK         0.0276 
     46 CB         27.6585   31.1730    0.9970 C.3       7 UNK        -0.1927 
     47 C          29.9689   31.8493    1.7935 C.2       7 UNK         0.5013 
     48 O          30.3801   32.9820    2.0520 O.2       7 UNK        -0.5193 
     49 N          30.6683   30.9337    1.1063 N.am      8 UNK        -0.4253 
     50 CA         31.9300   31.1679    0.3907 C.3       8 UNK         0.0242 
     51 CB         32.3235   29.8928   -0.3741 C.3       8 UNK        -0.2000 
     52 C          33.0651   31.6469    1.3110 C.2       8 UNK         0.4948 
     53 O          33.6619   30.8344    2.0179 O.2       8 UNK        -0.5275 
     54 N          33.2998   32.9688    1.3254 N.am      9 UNK        -0.4246 
     55 CA         34.2050   33.6933    2.2318 C.3       9 UNK         0.0261 
     56 CB         35.6782   33.3800    1.8936 C.3       9 UNK        -0.1959 
     57 C          33.8708   33.4562    3.7212 C.2       9 UNK         0.5033 
     58 O          34.7776   33.3869    4.5528 O.2       9 UNK        -0.5390 
     59 N          32.5720   33.2755    4.0114 N.am      10 UNK        -0.4215 
     60 CA         31.9763   32.8542    5.2857 C.3       10 UNK         0.0240 
     61 CB         32.2807   33.8668    6.4105 C.3       10 UNK        -0.1982 
     62 C          32.3114   31.4047    5.7077 C.2       10 UNK         0.4970 
     63 O          31.8884   30.9943    6.7894 O.2       10 UNK        -0.4916 
     64 N          33.0570   30.6592    4.8768 N.am      11 UNK        -0.4279 
     65 CA         33.5785   29.3054    5.1281 C.3       11 UNK         0.1003 
     66 C          34.4410   29.1626    6.4206 C.2       11 UNK         0.5709 
     67 N          35.1052   30.2189    6.8766 N.am      11 UNK        -0.7358 
     68 O          34.5444   28.0840    7.0003 O.2       11 UNK        -0.4999 
     69 C69        32.4928   28.2048    4.9578 C.3       12 UNK        -0.0954 
     70 S70        31.9443   28.0703    3.2215 S.3       12 UNK        -0.2268 
     71 C71        33.2547   27.0030    2.5305 C.3       12 UNK         0.0203 
     72 H72        24.7059   19.3195   -0.2519 H         1 UNK         0.0888 
     73 H73        25.9636   18.1682   -0.6967 H         1 UNK         0.0888 
     74 H74        26.1639   19.1854    0.7262 H         1 UNK         0.0888 
     75 H75        27.5235   20.9297    0.3923 H         1 UNK         0.3017 
     76 H76        28.3622   21.7635   -2.2367 H         1 UNK         0.0873 
     77 H77        28.9438   23.1060    0.4695 H         1 UNK         0.0745 
     78 H78        29.8237   21.7347   -0.1544 H         1 UNK         0.0745 
     79 H79        32.7471   23.7577   -1.3316 H         1 UNK         0.0705 
     80 H80        32.1402   22.2355   -0.7384 H         1 UNK         0.0705 
     81 H81        32.8506   25.7610    0.1309 H         1 UNK         0.1334 
     82 H82        32.5585   25.1044    4.3602 H         1 UNK         0.1417 
     83 H83        31.3822   22.0215    1.6305 H         1 UNK         0.1562 
     84 H84        31.9222   22.9083    5.2111 H         1 UNK         0.0748 
     85 H85        31.7365   21.5764    4.1000 H         1 UNK         0.0748 
     86 H86        30.2102   24.3550    6.0816 H         1 UNK         0.0940 
     87 H87        28.4893   24.1051    6.0075 H         1 UNK         0.0940 
     88 H88        30.1454   25.6453    3.9544 H         1 UNK         0.0703 
     89 H89        28.5562   25.4225    2.5105 H         1 UNK         0.3081 
     90 H90        25.6510   24.5516    2.0794 H         1 UNK         0.0719 
     91 H91        25.1512   27.4867    2.8182 H         1 UNK         0.0809 
     92 H92        24.2386   26.5779    1.6137 H         1 UNK         0.0809 
     93 H93        24.1729   26.1101    3.3036 H         1 UNK         0.0809 
     94 H94        26.7394   25.3321    0.3377 H         1 UNK         0.2990 
     95 H95        28.0200   28.3138   -0.7164 H         1 UNK         0.0690 
     96 H96        30.3307   27.4022   -1.0715 H         1 UNK         0.0788 
     97 H97        30.0748   26.2415    0.2298 H         1 UNK         0.0788 
     98 H98        30.1199   27.9564    0.5823 H         1 UNK         0.0788 
     99 H99        28.5229   25.5989   -1.5850 H         1 UNK         0.2993 
    100 H100       25.3686   24.9672   -2.9477 H         1 UNK         0.0949 
    101 H101       26.4776   24.7603   -5.1644 H         1 UNK         0.0767 
    102 H102       26.2033   26.4516   -4.7840 H         1 UNK         0.0767 
    103 H103       27.8165   25.7719   -4.6184 H         1 UNK         0.0767 
    104 H104       27.8667   23.6535   -3.3258 H         1 UNK         0.3013 
    105 H105       28.4225   27.8425    3.6893 H         1 UNK         0.3121 
    106 H106       29.1045   29.2913    6.1694 H         1 UNK         0.0774 
    107 H107       26.7511   30.1318    6.4245 H         1 UNK         0.0815 
    108 H108       26.2211   29.0420    5.1483 H         1 UNK         0.0815 
    109 H109       26.8411   28.3957    6.6664 H         1 UNK         0.0815 
    110 H110       28.2875   29.4015    2.7089 H         1 UNK         0.2987 
    111 H111       28.1143   32.3157    2.7301 H         1 UNK         0.0949 
    112 H112       27.6315   32.0360    0.3302 H         1 UNK         0.0806 
    113 H113       28.0149   30.3248    0.4154 H         1 UNK         0.0806 
    114 H114       26.6313   30.9626    1.2953 H         1 UNK         0.0806 
    115 H115       30.2665   30.0142    1.0101 H         1 UNK         0.3010 
    116 H116       31.7437   31.9473   -0.3510 H         1 UNK         0.0829 
    117 H117       31.5794   29.6366   -1.1281 H         1 UNK         0.0813 
    118 H118       33.2746   30.0249   -0.8916 H         1 UNK         0.0813 
    119 H119       32.4338   29.0393    0.2941 H         1 UNK         0.0813 
    120 H120       32.7220   33.5533    0.7359 H         1 UNK         0.3038 
    121 H121       34.0409   34.7565    2.0501 H         1 UNK         0.0769 
    122 H122       36.3555   34.0060    2.4759 H         1 UNK         0.0811 
    123 H123       35.8921   33.5657    0.8412 H         1 UNK         0.0811 
    124 H124       35.9307   32.3412    2.1090 H         1 UNK         0.0811 
    125 H125       31.9105   33.3213    3.2388 H         1 UNK         0.3204 
    126 H126       30.9018   32.8818    5.1160 H         1 UNK         0.0748 
    127 H127       31.6935   33.6454    7.3025 H         1 UNK         0.0771 
    128 H128       33.3304   33.8479    6.7043 H         1 UNK         0.0771 
    129 H129       32.0335   34.8840    6.1070 H         1 UNK         0.0771 
    130 H130       33.3265   31.0432    3.9774 H         1 UNK         0.2980 
    131 H131       34.3108   29.1478    4.3361 H         1 UNK         0.0545 
    132 H132       35.0430   31.1055    6.3997 H         1 UNK         0.3459 
    133 H133       35.6718   30.1270    7.7047 H         1 UNK         0.3459 
    134 H134       32.8573   27.2270    5.2732 H         1 UNK         0.0616 
    135 H135       31.6298   28.4221    5.5879 H         1 UNK         0.0616 
    136 H136       33.6139   27.4547    1.6053 H         1 UNK         0.0634 
    137 H137       34.1162   26.9699    3.1982 H         1 UNK         0.0634 
@<TRIPOS>BOND
     1    1    2 1    
     2    1   72 1    
     3    1   73 1    
     4    1   74 1    
     5    2    3 2    
     6    2    4 am   BACKBONE|DICT|INTERRES
     7    4    5 1    
     8    4   75 1    
     9    5    6 1    
    10    5   35 1    
    11    5   76 1    
    12    6    7 1    
    13    6   77 1    
    14    6   78 1    
    15    7    8 1    
    16    8    9 1    
    17    8   79 1    
    18    8   80 1    
    19    9   10 ar   
    20    9   14 ar   
    21   10   11 ar   
    22   10   81 1    
    23   11   12 ar   
    24   11   71 1    
    25   12   13 ar   
    26   12   82 1    
    27   13   14 ar   
    28   13   15 1    
    29   14   83 1    
    30   15   16 1    
    31   15   84 1    
    32   15   85 1    
    33   16   17 1    
    34   17   18 1    
    35   17   86 1    
    36   17   87 1    
    37   18   19 1    
    38   18   37 1    
    39   18   88 1    
    40   19   20 am   BACKBONE|DICT|INTERRES
    41   19   89 1    
    42   20   21 2    
    43   20   22 1    
    44   22   23 1    
    45   22   24 1    
    46   22   90 1    
    47   23   91 1    
    48   23   92 1    
    49   23   93 1    
    50   24   25 am   BACKBONE|DICT|INTERRES
    51   24   94 1    
    52   25   26 2    
    53   25   27 1    
    54   27   28 1    
    55   27   29 1    
    56   27   95 1    
    57   28   96 1    
    58   28   97 1    
    59   28   98 1    
    60   29   30 am   BACKBONE|DICT|INTERRES
    61   29   99 1    
    62   30   31 2    
    63   30   32 1    
    64   32   33 1    
    65   32   34 1    
    66   32  100 1    
    67   33  101 1    
    68   33  102 1    
    69   33  103 1    
    70   34   35 am   BACKBONE|DICT|INTERRES
    71   34  104 1    
    72   35   36 2    
    73   37   38 2    
    74   37   39 am   BACKBONE|DICT|INTERRES
    75   39   40 1    
    76   39  105 1    
    77   40   41 1    
    78   40   42 1    
    79   40  106 1    
    80   41  107 1    
    81   41  108 1    
    82   41  109 1    
    83   42   43 2    
    84   42   44 am   BACKBONE|DICT|INTERRES
    85   44   45 1    
    86   44  110 1    
    87   45   46 1    
    88   45   47 1    
    89   45  111 1    
    90   46  112 1    
    91   46  113 1    
    92   46  114 1    
    93   47   48 2    
    94   47   49 am   BACKBONE|DICT|INTERRES
    95   49   50 1    
    96   49  115 1    
    97   50   51 1    
    98   50   52 1    
    99   50  116 1    
   100   51  117 1    
   101   51  118 1    
   102   51  119 1    
   103   52   53 2    
   104   52   54 am   BACKBONE|DICT|INTERRES
   105   54   55 1    
   106   54  120 1    
   107   55   56 1    
   108   55   57 1    
   109   55  121 1    
   110   56  122 1    
   111   56  123 1    
   112   56  124 1    
   113   57   58 2    
   114   57   59 am   BACKBONE|DICT|INTERRES
   115   59   60 1    
   116   59  125 1    
   117   60   61 1    
   118   60   62 1    
   119   60  126 1    
   120   61  127 1    
   121   61  128 1    
   122   61  129 1    
   123   62   63 2    
   124   62   64 am   BACKBONE|DICT|INTERRES
   125   64   65 1    
   126   64  130 1    
   127   65   66 1    
   128   65   69 1    
   129   65  131 1    
   130   66   67 am   BACKBONE|DICT|INTERRES
   131   66   68 2    
   132   67  132 1    
   133   67  133 1    
   134   69   70 1    
   135   69  134 1    
   136   69  135 1    
   137   70   71 1    
   138   71  136 1    
   139   71  137 1    
@<TRIPOS>SUBSTRUCTURE
     1 UNK         1 GROUP             0       ****    0 ROOT    
