@<TRIPOS>MOLECULE
3R136
137   139    1
SMALL
USER_CHARGES


@<TRIPOS>ATOM
      1 CA         29.5490   19.7737   -1.1788 C.3       0 UNK        -0.1979 
      2 C          29.2678   20.5879    0.0805 C.2       0 UNK         0.4864 
      3 O          29.3421   20.0402    1.1791 O.2       0 UNK        -0.5359 
      4 N          28.9446   21.8833   -0.0162 N.am      1 UNK        -0.4318 
      5 CA         28.7546   22.6757   -1.2315 C.3       1 UNK         0.0824 
      6 C6         29.8742   23.7285   -1.4478 C.3       12 UNK        -0.0944 
      7 S7         31.5300   22.9937   -1.6834 S.3       12 UNK        -0.2672 
      8 C8         32.6255   24.2476   -0.9147 C.3       12 UNK         0.0333 
      9 C9         32.5230   24.4130    0.6062 C.ar      12 UNK        -0.0807 
     10 C10        33.2809   25.4118    1.2271 C.ar      12 UNK        -0.0894 
     11 C11        33.2077   25.6178    2.6102 C.ar      12 UNK        -0.0804 
     12 C12        32.3427   24.8305    3.3780 C.ar      12 UNK        -0.0824 
     13 C13        31.5605   23.8469    2.7692 C.ar      12 UNK        -0.0762 
     14 C14        31.6908   23.6174    1.3997 C.ar      12 UNK        -0.0782 
     15 C15        30.5404   23.0447    3.5609 C.3       12 UNK         0.0230 
     16 S16        28.8420   23.5075    3.0782 S.3       12 UNK        -0.2608 
     17 C17        28.5364   24.9897    4.0947 C.3       12 UNK        -0.0989 
     18 CA         28.9456   26.3276    3.4253 C.3       5 UNK         0.0716 
     19 N          28.2991   26.5541    2.1268 N.am      5 UNK        -0.4135 
     20 C          28.5169   27.6176    1.3351 C.2       4 UNK         0.5031 
     21 O          29.3056   28.5264    1.6085 O.2       4 UNK        -0.5229 
     22 CA         27.7219   27.7202    0.0257 C.3       4 UNK         0.0329 
     23 CB         28.5724   27.2726   -1.1713 C.3       4 UNK        -0.2001 
     24 N          26.4846   26.9392    0.0505 N.am      4 UNK        -0.4303 
     25 C          25.2619   27.4554    0.2344 C.2       3 UNK         0.5044 
     26 O          25.0577   28.6493    0.4587 O.2       3 UNK        -0.5152 
     27 CA         24.0575   26.4899    0.1705 C.3       3 UNK         0.0319 
     28 CB         22.8330   27.1317   -0.5166 C.3       3 UNK        -0.2001 
     29 N          24.3511   25.1750   -0.4178 N.am      3 UNK        -0.4354 
     30 C          24.7613   24.9025   -1.6665 C.2       2 UNK         0.4964 
     31 O          24.9527   25.7473   -2.5427 O.2       2 UNK        -0.5047 
     32 CA         25.0360   23.4184   -1.9684 C.3       2 UNK         0.0288 
     33 CB         24.3834   22.9932   -3.2960 C.3       2 UNK        -0.2113 
     34 N          26.4623   23.0716   -2.0045 N.am      2 UNK        -0.4145 
     35 C          27.3812   23.3451   -1.0653 C.2       1 UNK         0.5006 
     36 O          27.1790   24.0545   -0.0744 O.2       1 UNK        -0.5103 
     37 C          28.6705   27.5000    4.3884 C.2       5 UNK         0.5055 
     38 O          27.5169   27.7125    4.7675 O.2       5 UNK        -0.5220 
     39 N          29.7322   28.2415    4.7336 N.am      6 UNK        -0.4450 
     40 CA         29.7428   29.4464    5.5738 C.3       6 UNK         0.0367 
     41 CB         29.2849   29.1293    7.0135 C.3       6 UNK        -0.1929 
     42 C          28.9987   30.6516    4.9596 C.2       6 UNK         0.5070 
     43 O          28.6535   31.5815    5.6908 O.2       6 UNK        -0.5237 
     44 N          28.7757   30.6287    3.6386 N.am      7 UNK        -0.4739 
     45 CA         28.1360   31.7019    2.8761 C.3       7 UNK         0.0276 
     46 CB         26.7949   31.2045    2.3137 C.3       7 UNK        -0.1927 
     47 C          29.0508   32.2005    1.7503 C.2       7 UNK         0.5013 
     48 O          29.1381   33.4111    1.5420 O.2       7 UNK        -0.5193 
     49 N          29.7283   31.2762    1.0533 N.am      8 UNK        -0.4253 
     50 CA         30.6783   31.5860   -0.0198 C.3       8 UNK         0.0242 
     51 CB         30.8400   30.3499   -0.9182 C.3       8 UNK        -0.2000 
     52 C          32.0491   32.0545    0.4997 C.2       8 UNK         0.4948 
     53 O          32.7852   32.7020   -0.2463 O.2       8 UNK        -0.5275 
     54 N          32.3707   31.7214    1.7535 N.am      9 UNK        -0.4246 
     55 CA         33.6001   32.0662    2.4565 C.3       9 UNK         0.0261 
     56 CB         34.7372   31.1219    2.0184 C.3       9 UNK        -0.1959 
     57 C          33.3306   31.9523    3.9609 C.2       9 UNK         0.5033 
     58 O          32.2926   31.4150    4.3594 O.2       9 UNK        -0.5390 
     59 N          34.2786   32.4249    4.7786 N.am      10 UNK        -0.4215 
     60 CA         34.2591   32.3092    6.2398 C.3       10 UNK         0.0240 
     61 CB         35.1665   33.3996    6.8408 C.3       10 UNK        -0.1982 
     62 C          34.6582   30.8891    6.6893 C.2       10 UNK         0.4970 
     63 O          35.7195   30.7039    7.2876 O.2       10 UNK        -0.4916 
     64 N          33.8120   29.9093    6.3526 N.am      11 UNK        -0.4279 
     65 CA         34.0229   28.4724    6.5993 C.3       11 UNK         0.1003 
     66 C          33.9840   28.0451    8.0960 C.2       11 UNK         0.5709 
     67 N          33.4740   28.8629    9.0094 N.am      11 UNK        -0.7358 
     68 O          34.4282   26.9500    8.4322 O.2       11 UNK        -0.4999 
     69 C69        33.0587   27.5910    5.7598 C.3       12 UNK        -0.0954 
     70 S70        33.0484   28.0220    3.9833 S.3       12 UNK        -0.2268 
     71 C71        34.0630   26.6933    3.2661 C.3       12 UNK         0.0203 
     72 H72        28.6382   19.6402   -1.7616 H         1 UNK         0.0888 
     73 H73        30.3001   20.2578   -1.8017 H         1 UNK         0.0888 
     74 H74        29.9263   18.7850   -0.9184 H         1 UNK         0.0888 
     75 H75        28.7098   22.3863    0.8315 H         1 UNK         0.3017 
     76 H76        28.7145   22.0362   -2.1139 H         1 UNK         0.0873 
     77 H77        29.6589   24.3346   -2.3296 H         1 UNK         0.0745 
     78 H78        29.9128   24.4155   -0.6012 H         1 UNK         0.0745 
     79 H79        32.4296   25.2101   -1.3899 H         1 UNK         0.0705 
     80 H80        33.6556   23.9871   -1.1612 H         1 UNK         0.0705 
     81 H81        33.9345   26.0313    0.6278 H         1 UNK         0.1334 
     82 H82        32.2598   24.9998    4.4420 H         1 UNK         0.1417 
     83 H83        31.1044   22.8300    0.9587 H         1 UNK         0.1562 
     84 H84        30.6788   23.1709    4.6356 H         1 UNK         0.0748 
     85 H85        30.6854   21.9828    3.3555 H         1 UNK         0.0748 
     86 H86        29.0504   24.8685    5.0503 H         1 UNK         0.0940 
     87 H87        27.4709   25.0005    4.3340 H         1 UNK         0.0940 
     88 H88        30.0180   26.2919    3.2299 H         1 UNK         0.0703 
     89 H89        27.6495   25.8431    1.8240 H         1 UNK         0.3081 
     90 H90        27.4968   28.7786   -0.1193 H         1 UNK         0.0719 
     91 H91        28.6648   26.1918   -1.2077 H         1 UNK         0.0809 
     92 H92        28.1239   27.5951   -2.1110 H         1 UNK         0.0809 
     93 H93        29.5804   27.6858   -1.1307 H         1 UNK         0.0809 
     94 H94        26.5711   25.9391   -0.1061 H         1 UNK         0.2990 
     95 H95        23.7841   26.2957    1.2086 H         1 UNK         0.0690 
     96 H96        21.9832   26.4492   -0.5324 H         1 UNK         0.0788 
     97 H97        23.0514   27.4203   -1.5452 H         1 UNK         0.0788 
     98 H98        22.5123   28.0311    0.0106 H         1 UNK         0.0788 
     99 H99        24.2781   24.3991    0.2264 H         1 UNK         0.2993 
    100 H100       24.5828   22.8196   -1.1755 H         1 UNK         0.0949 
    101 H101       24.8399   23.4959   -4.1499 H         1 UNK         0.0767 
    102 H102       24.4671   21.9179   -3.4551 H         1 UNK         0.0767 
    103 H103       23.3202   23.2380   -3.3047 H         1 UNK         0.0767 
    104 H104       26.7448   22.5032   -2.7897 H         1 UNK         0.3013 
    105 H105       30.6259   28.0088    4.3172 H         1 UNK         0.3121 
    106 H106       30.7858   29.7529    5.6355 H         1 UNK         0.0774 
    107 H107       29.4537   29.9810    7.6735 H         1 UNK         0.0815 
    108 H108       28.2216   28.8927    7.0582 H         1 UNK         0.0815 
    109 H109       29.8358   28.2864    7.4303 H         1 UNK         0.0815 
    110 H110       29.0819   29.8167    3.1125 H         1 UNK         0.2987 
    111 H111       27.9327   32.5590    3.5219 H         1 UNK         0.0949 
    112 H112       26.2972   31.9857    1.7377 H         1 UNK         0.0806 
    113 H113       26.9238   30.3457    1.6556 H         1 UNK         0.0806 
    114 H114       26.1167   30.9089    3.1142 H         1 UNK         0.0806 
    115 H115       29.5947   30.2900    1.2675 H         1 UNK         0.3010 
    116 H116       30.2670   32.3948   -0.6278 H         1 UNK         0.0829 
    117 H117       29.8907   30.0715   -1.3753 H         1 UNK         0.0813 
    118 H118       31.5437   30.5432   -1.7290 H         1 UNK         0.0813 
    119 H119       31.2132   29.4909   -0.3586 H         1 UNK         0.0813 
    120 H120       31.6946   31.2384    2.3332 H         1 UNK         0.3038 
    121 H121       33.8652   33.1014    2.2314 H         1 UNK         0.0769 
    122 H122       35.6701   31.3542    2.5329 H         1 UNK         0.0811 
    123 H123       34.9335   31.2047    0.9494 H         1 UNK         0.0811 
    124 H124       34.4973   30.0796    2.2317 H         1 UNK         0.0811 
    125 H125       35.1130   32.8241    4.3725 H         1 UNK         0.3204 
    126 H126       33.2427   32.4915    6.5964 H         1 UNK         0.0748 
    127 H127       36.2017   33.2934    6.5137 H         1 UNK         0.0771 
    128 H128       34.8268   34.3967    6.5596 H         1 UNK         0.0771 
    129 H129       35.1622   33.3537    7.9308 H         1 UNK         0.0771 
    130 H130       33.0081   30.1584    5.7871 H         1 UNK         0.2980 
    131 H131       35.0355   28.2497    6.2577 H         1 UNK         0.0545 
    132 H132       33.4581   28.5754    9.9751 H         1 UNK         0.3459 
    133 H133       33.1109   29.7635    8.7438 H         1 UNK         0.3459 
    134 H134       32.0420   27.6853    6.1402 H         1 UNK         0.0616 
    135 H135       33.3165   26.5371    5.8738 H         1 UNK         0.0616 
    136 H136       34.7351   27.1436    2.5341 H         1 UNK         0.0634 
    137 H137       34.7047   26.2448    4.0255 H         1 UNK         0.0634 
@<TRIPOS>BOND
     1    1    2 1    
     2    1   72 1    
     3    1   73 1    
     4    1   74 1    
     5    2    3 2    
     6    2    4 am   BACKBONE|DICT|INTERRES
     7    4    5 1    
     8    4   75 1    
     9    5    6 1    
    10    5   35 1    
    11    5   76 1    
    12    6    7 1    
    13    6   77 1    
    14    6   78 1    
    15    7    8 1    
    16    8    9 1    
    17    8   79 1    
    18    8   80 1    
    19    9   10 ar   
    20    9   14 ar   
    21   10   11 ar   
    22   10   81 1    
    23   11   12 ar   
    24   11   71 1    
    25   12   13 ar   
    26   12   82 1    
    27   13   14 ar   
    28   13   15 1    
    29   14   83 1    
    30   15   16 1    
    31   15   84 1    
    32   15   85 1    
    33   16   17 1    
    34   17   18 1    
    35   17   86 1    
    36   17   87 1    
    37   18   19 1    
    38   18   37 1    
    39   18   88 1    
    40   19   20 am   BACKBONE|DICT|INTERRES
    41   19   89 1    
    42   20   21 2    
    43   20   22 1    
    44   22   23 1    
    45   22   24 1    
    46   22   90 1    
    47   23   91 1    
    48   23   92 1    
    49   23   93 1    
    50   24   25 am   BACKBONE|DICT|INTERRES
    51   24   94 1    
    52   25   26 2    
    53   25   27 1    
    54   27   28 1    
    55   27   29 1    
    56   27   95 1    
    57   28   96 1    
    58   28   97 1    
    59   28   98 1    
    60   29   30 am   BACKBONE|DICT|INTERRES
    61   29   99 1    
    62   30   31 2    
    63   30   32 1    
    64   32   33 1    
    65   32   34 1    
    66   32  100 1    
    67   33  101 1    
    68   33  102 1    
    69   33  103 1    
    70   34   35 am   BACKBONE|DICT|INTERRES
    71   34  104 1    
    72   35   36 2    
    73   37   38 2    
    74   37   39 am   BACKBONE|DICT|INTERRES
    75   39   40 1    
    76   39  105 1    
    77   40   41 1    
    78   40   42 1    
    79   40  106 1    
    80   41  107 1    
    81   41  108 1    
    82   41  109 1    
    83   42   43 2    
    84   42   44 am   BACKBONE|DICT|INTERRES
    85   44   45 1    
    86   44  110 1    
    87   45   46 1    
    88   45   47 1    
    89   45  111 1    
    90   46  112 1    
    91   46  113 1    
    92   46  114 1    
    93   47   48 2    
    94   47   49 am   BACKBONE|DICT|INTERRES
    95   49   50 1    
    96   49  115 1    
    97   50   51 1    
    98   50   52 1    
    99   50  116 1    
   100   51  117 1    
   101   51  118 1    
   102   51  119 1    
   103   52   53 2    
   104   52   54 am   BACKBONE|DICT|INTERRES
   105   54   55 1    
   106   54  120 1    
   107   55   56 1    
   108   55   57 1    
   109   55  121 1    
   110   56  122 1    
   111   56  123 1    
   112   56  124 1    
   113   57   58 2    
   114   57   59 am   BACKBONE|DICT|INTERRES
   115   59   60 1    
   116   59  125 1    
   117   60   61 1    
   118   60   62 1    
   119   60  126 1    
   120   61  127 1    
   121   61  128 1    
   122   61  129 1    
   123   62   63 2    
   124   62   64 am   BACKBONE|DICT|INTERRES
   125   64   65 1    
   126   64  130 1    
   127   65   66 1    
   128   65   69 1    
   129   65  131 1    
   130   66   67 am   BACKBONE|DICT|INTERRES
   131   66   68 2    
   132   67  132 1    
   133   67  133 1    
   134   69   70 1    
   135   69  134 1    
   136   69  135 1    
   137   70   71 1    
   138   71  136 1    
   139   71  137 1    
@<TRIPOS>SUBSTRUCTURE
     1 UNK         1 GROUP             0       ****    0 ROOT    
