@<TRIPOS>MOLECULE
3R136
137   139    1
SMALL
USER_CHARGES


@<TRIPOS>ATOM
      1 CA         25.0482   22.2247    2.0411 C.3       0 UNK        -0.1979 
      2 C          26.0108   21.3833    1.2169 C.2       0 UNK         0.4864 
      3 O          25.5914   20.4088    0.5897 O.2       0 UNK        -0.5359 
      4 N          27.2953   21.7589    1.2005 N.am      1 UNK        -0.4318 
      5 CA         28.3701   21.1324    0.4240 C.3       1 UNK         0.0824 
      6 C6         29.7832   21.5996    0.8775 C.3       12 UNK        -0.0944 
      7 S7         29.9121   23.3754    1.3077 S.3       12 UNK        -0.2672 
      8 C8         29.8389   23.2623    3.1216 C.3       12 UNK         0.0333 
      9 C9         29.6163   24.6202    3.7673 C.ar      12 UNK        -0.0807 
     10 C10        30.7070   25.4347    4.0835 C.ar      12 UNK        -0.0894 
     11 C11        30.5152   26.6611    4.7266 C.ar      12 UNK        -0.0804 
     12 C12        29.2196   27.0662    5.0602 C.ar      12 UNK        -0.0824 
     13 C13        28.1185   26.2650    4.7397 C.ar      12 UNK        -0.0762 
     14 C14        28.3228   25.0450    4.0873 C.ar      12 UNK        -0.0782 
     15 C15        26.7137   26.7032    5.1311 C.3       12 UNK         0.0230 
     16 S16        26.1706   28.1784    4.2140 S.3       12 UNK        -0.2608 
     17 C17        25.8788   27.5086    2.5402 C.3       12 UNK        -0.0989 
     18 CA         27.1015   27.5674    1.5823 C.3       5 UNK         0.0716 
     19 N          26.7779   27.0391    0.2632 N.am      5 UNK        -0.4135 
     20 C          26.5785   25.7602   -0.0596 C.2       4 UNK         0.5031 
     21 O          26.6058   24.8308    0.7510 O.2       4 UNK        -0.5229 
     22 CA         26.3272   25.4943   -1.5526 C.3       4 UNK         0.0329 
     23 CB         27.6351   25.6247   -2.3528 C.3       4 UNK        -0.2001 
     24 N          25.7695   24.1572   -1.7594 N.am      4 UNK        -0.4303 
     25 C          24.4586   23.8858   -1.8410 C.2       3 UNK         0.5044 
     26 O          23.5890   24.7580   -1.7983 O.2       3 UNK        -0.5152 
     27 CA         24.0156   22.4102   -1.9637 C.3       3 UNK         0.0319 
     28 CB         22.8872   22.2207   -3.0002 C.3       3 UNK        -0.2001 
     29 N          25.1084   21.4545   -2.1813 N.am      3 UNK        -0.4354 
     30 C          25.8945   21.3209   -3.2629 C.2       2 UNK         0.4964 
     31 O          25.7465   21.9584   -4.3063 O.2       2 UNK        -0.5047 
     32 CA         27.0716   20.3278   -3.1242 C.3       2 UNK         0.0288 
     33 CB         28.1864   20.5658   -4.1660 C.3       2 UNK        -0.2113 
     34 N          27.6264   20.2997   -1.7611 N.am      2 UNK        -0.4145 
     35 C          28.1144   21.3492   -1.0795 C.2       1 UNK         0.5006 
     36 O          28.2712   22.4674   -1.5686 O.2       1 UNK        -0.5103 
     37 C          27.6404   28.9904    1.3427 C.2       5 UNK         0.5055 
     38 O          27.2804   29.6168    0.3400 O.2       5 UNK        -0.5220 
     39 N          28.4933   29.4722    2.2494 N.am      6 UNK        -0.4450 
     40 CA         29.0836   30.8066    2.2428 C.3       6 UNK         0.0367 
     41 CB         30.2989   30.8423    1.2944 C.3       6 UNK        -0.1929 
     42 C          29.4686   31.1740    3.6824 C.2       6 UNK         0.5070 
     43 O          29.3113   30.3544    4.5906 O.2       6 UNK        -0.5237 
     44 N          29.9634   32.4024    3.8729 N.am      7 UNK        -0.4739 
     45 CA         30.5085   32.8768    5.1472 C.3       7 UNK         0.0276 
     46 CB         30.7569   34.3911    5.0492 C.3       7 UNK        -0.1927 
     47 C          31.8160   32.1505    5.5026 C.2       7 UNK         0.5013 
     48 O          32.5775   31.7950    4.6009 O.2       7 UNK        -0.5193 
     49 N          32.0993   32.0107    6.8044 N.am      8 UNK        -0.4253 
     50 CA         33.3017   31.3498    7.3322 C.3       8 UNK         0.0242 
     51 CB         33.2296   31.3134    8.8673 C.3       8 UNK        -0.2000 
     52 C          34.6338   31.9741    6.8696 C.2       8 UNK         0.4948 
     53 O          35.6340   31.2622    6.7895 O.2       8 UNK        -0.5275 
     54 N          34.6177   33.2772    6.5551 N.am      9 UNK        -0.4246 
     55 CA         35.7418   34.0083    5.9669 C.3       9 UNK         0.0261 
     56 CB         35.5534   35.5112    6.2330 C.3       9 UNK        -0.1959 
     57 C          35.9177   33.7514    4.4568 C.2       9 UNK         0.5033 
     58 O          37.0185   33.9634    3.9460 O.2       9 UNK        -0.5390 
     59 N          34.8489   33.3288    3.7656 N.am      10 UNK        -0.4215 
     60 CA         34.8569   32.9996    2.3384 C.3       10 UNK         0.0240 
     61 CB         33.4960   33.3557    1.7171 C.3       10 UNK        -0.1982 
     62 C          35.1917   31.5177    2.1120 C.2       10 UNK         0.4970 
     63 O          35.9139   31.2052    1.1642 O.2       10 UNK        -0.4916 
     64 N          34.6780   30.6408    2.9855 N.am      11 UNK        -0.4279 
     65 CA         35.0103   29.2104    3.0483 C.3       11 UNK         0.1003 
     66 C          36.5217   28.9444    3.3041 C.2       11 UNK         0.5709 
     67 N          37.0492   27.8419    2.7884 N.am      11 UNK        -0.7358 
     68 O          37.2086   29.6986    3.9904 O.2       11 UNK        -0.4999 
     69 C69        34.1465   28.4816    4.1093 C.3       12 UNK        -0.0954 
     70 S70        32.3941   28.3678    3.6281 S.3       12 UNK        -0.2268 
     71 C71        31.7158   27.5227    5.0884 C.3       12 UNK         0.0203 
     72 H72        25.5729   22.9676    2.6416 H         1 UNK         0.0888 
     73 H73        24.4723   21.5899    2.7137 H         1 UNK         0.0888 
     74 H74        24.3547   22.7511    1.3864 H         1 UNK         0.0888 
     75 H75        27.5497   22.6438    1.6202 H         1 UNK         0.3017 
     76 H76        28.3188   20.0577    0.6128 H         1 UNK         0.0873 
     77 H77        30.0880   21.0125    1.7452 H         1 UNK         0.0745 
     78 H78        30.5306   21.3756    0.1138 H         1 UNK         0.0745 
     79 H79        29.0396   22.5802    3.4157 H         1 UNK         0.0705 
     80 H80        30.7661   22.8206    3.4903 H         1 UNK         0.0705 
     81 H81        31.7090   25.1111    3.8357 H         1 UNK         0.1334 
     82 H82        29.0645   28.0047    5.5749 H         1 UNK         0.1417 
     83 H83        27.4763   24.4188    3.8406 H         1 UNK         0.1562 
     84 H84        26.7013   26.9324    6.1976 H         1 UNK         0.0748 
     85 H85        25.9924   25.8974    4.9860 H         1 UNK         0.0748 
     86 H86        25.0416   28.0580    2.1056 H         1 UNK         0.0940 
     87 H87        25.5320   26.4789    2.6384 H         1 UNK         0.0940 
     88 H88        27.9156   26.9653    1.9896 H         1 UNK         0.0703 
     89 H89        26.7646   27.7558   -0.4535 H         1 UNK         0.3081 
     90 H90        25.6268   26.2453   -1.9243 H         1 UNK         0.0719 
     91 H91        28.4313   25.0094   -1.9330 H         1 UNK         0.0809 
     92 H92        27.4971   25.3301   -3.3933 H         1 UNK         0.0809 
     93 H93        27.9934   26.6546   -2.3537 H         1 UNK         0.0809 
     94 H94        26.4417   23.3979   -1.7451 H         1 UNK         0.2990 
     95 H95        23.6000   22.1512   -0.9891 H         1 UNK         0.0690 
     96 H96        22.5777   21.1776   -3.0648 H         1 UNK         0.0788 
     97 H97        23.1903   22.5447   -3.9961 H         1 UNK         0.0788 
     98 H98        22.0050   22.8015   -2.7283 H         1 UNK         0.0788 
     99 H99        25.3350   20.8908   -1.3663 H         1 UNK         0.2993 
    100 H100       26.6521   19.3377   -3.3091 H         1 UNK         0.0949 
    101 H101       27.8030   20.4554   -5.1812 H         1 UNK         0.0767 
    102 H102       28.6092   21.5679   -4.0864 H         1 UNK         0.0767 
    103 H103       28.9987   19.8487   -4.0482 H         1 UNK         0.0767 
    104 H104       27.4925   19.4322   -1.2585 H         1 UNK         0.3013 
    105 H105       28.6817   28.9476    3.0973 H         1 UNK         0.3121 
    106 H106       28.3340   31.5252    1.9047 H         1 UNK         0.0774 
    107 H107       30.0349   30.5058    0.2919 H         1 UNK         0.0815 
    108 H108       31.1104   30.2102    1.6556 H         1 UNK         0.0815 
    109 H109       30.6915   31.8538    1.1945 H         1 UNK         0.0815 
    110 H110       30.0788   33.0113    3.0764 H         1 UNK         0.2987 
    111 H111       29.7720   32.6839    5.9305 H         1 UNK         0.0949 
    112 H112       31.4917   34.6319    4.2793 H         1 UNK         0.0806 
    113 H113       29.8381   34.9292    4.8150 H         1 UNK         0.0806 
    114 H114       31.1302   34.7909    5.9929 H         1 UNK         0.0806 
    115 H115       31.4342   32.3476    7.4862 H         1 UNK         0.3010 
    116 H116       33.2885   30.3207    6.9669 H         1 UNK         0.0829 
    117 H117       32.3457   30.7762    9.2116 H         1 UNK         0.0813 
    118 H118       34.0984   30.8038    9.2868 H         1 UNK         0.0813 
    119 H119       33.2030   32.3166    9.2947 H         1 UNK         0.0813 
    120 H120       33.7563   33.7879    6.6818 H         1 UNK         0.3038 
    121 H121       36.6613   33.6883    6.4622 H         1 UNK         0.0769 
    122 H122       34.6454   35.8948    5.7660 H         1 UNK         0.0811 
    123 H123       36.3913   36.0855    5.8351 H         1 UNK         0.0811 
    124 H124       35.4980   35.7217    7.3013 H         1 UNK         0.0811 
    125 H125       34.0017   33.0874    4.2687 H         1 UNK         0.3204 
    126 H126       35.6195   33.5954    1.8320 H         1 UNK         0.0748 
    127 H127       33.2740   34.4167    1.8325 H         1 UNK         0.0771 
    128 H128       33.4861   33.1360    0.6487 H         1 UNK         0.0771 
    129 H129       32.6821   32.7925    2.1724 H         1 UNK         0.0771 
    130 H130       34.0299   30.9776    3.6912 H         1 UNK         0.2980 
    131 H131       34.7734   28.7921    2.0680 H         1 UNK         0.0545 
    132 H132       38.0235   27.6427    2.9532 H         1 UNK         0.3459 
    133 H133       36.4953   27.2080    2.2338 H         1 UNK         0.3459 
    134 H134       34.5031   27.4607    4.2602 H         1 UNK         0.0616 
    135 H135       34.2225   28.9819    5.0764 H         1 UNK         0.0616 
    136 H136       31.4493   28.2718    5.8359 H         1 UNK         0.0634 
    137 H137       32.4797   26.8901    5.5427 H         1 UNK         0.0634 
@<TRIPOS>BOND
     1    1    2 1    
     2    1   72 1    
     3    1   73 1    
     4    1   74 1    
     5    2    3 2    
     6    2    4 am   BACKBONE|DICT|INTERRES
     7    4    5 1    
     8    4   75 1    
     9    5    6 1    
    10    5   35 1    
    11    5   76 1    
    12    6    7 1    
    13    6   77 1    
    14    6   78 1    
    15    7    8 1    
    16    8    9 1    
    17    8   79 1    
    18    8   80 1    
    19    9   10 ar   
    20    9   14 ar   
    21   10   11 ar   
    22   10   81 1    
    23   11   12 ar   
    24   11   71 1    
    25   12   13 ar   
    26   12   82 1    
    27   13   14 ar   
    28   13   15 1    
    29   14   83 1    
    30   15   16 1    
    31   15   84 1    
    32   15   85 1    
    33   16   17 1    
    34   17   18 1    
    35   17   86 1    
    36   17   87 1    
    37   18   19 1    
    38   18   37 1    
    39   18   88 1    
    40   19   20 am   BACKBONE|DICT|INTERRES
    41   19   89 1    
    42   20   21 2    
    43   20   22 1    
    44   22   23 1    
    45   22   24 1    
    46   22   90 1    
    47   23   91 1    
    48   23   92 1    
    49   23   93 1    
    50   24   25 am   BACKBONE|DICT|INTERRES
    51   24   94 1    
    52   25   26 2    
    53   25   27 1    
    54   27   28 1    
    55   27   29 1    
    56   27   95 1    
    57   28   96 1    
    58   28   97 1    
    59   28   98 1    
    60   29   30 am   BACKBONE|DICT|INTERRES
    61   29   99 1    
    62   30   31 2    
    63   30   32 1    
    64   32   33 1    
    65   32   34 1    
    66   32  100 1    
    67   33  101 1    
    68   33  102 1    
    69   33  103 1    
    70   34   35 am   BACKBONE|DICT|INTERRES
    71   34  104 1    
    72   35   36 2    
    73   37   38 2    
    74   37   39 am   BACKBONE|DICT|INTERRES
    75   39   40 1    
    76   39  105 1    
    77   40   41 1    
    78   40   42 1    
    79   40  106 1    
    80   41  107 1    
    81   41  108 1    
    82   41  109 1    
    83   42   43 2    
    84   42   44 am   BACKBONE|DICT|INTERRES
    85   44   45 1    
    86   44  110 1    
    87   45   46 1    
    88   45   47 1    
    89   45  111 1    
    90   46  112 1    
    91   46  113 1    
    92   46  114 1    
    93   47   48 2    
    94   47   49 am   BACKBONE|DICT|INTERRES
    95   49   50 1    
    96   49  115 1    
    97   50   51 1    
    98   50   52 1    
    99   50  116 1    
   100   51  117 1    
   101   51  118 1    
   102   51  119 1    
   103   52   53 2    
   104   52   54 am   BACKBONE|DICT|INTERRES
   105   54   55 1    
   106   54  120 1    
   107   55   56 1    
   108   55   57 1    
   109   55  121 1    
   110   56  122 1    
   111   56  123 1    
   112   56  124 1    
   113   57   58 2    
   114   57   59 am   BACKBONE|DICT|INTERRES
   115   59   60 1    
   116   59  125 1    
   117   60   61 1    
   118   60   62 1    
   119   60  126 1    
   120   61  127 1    
   121   61  128 1    
   122   61  129 1    
   123   62   63 2    
   124   62   64 am   BACKBONE|DICT|INTERRES
   125   64   65 1    
   126   64  130 1    
   127   65   66 1    
   128   65   69 1    
   129   65  131 1    
   130   66   67 am   BACKBONE|DICT|INTERRES
   131   66   68 2    
   132   67  132 1    
   133   67  133 1    
   134   69   70 1    
   135   69  134 1    
   136   69  135 1    
   137   70   71 1    
   138   71  136 1    
   139   71  137 1    
@<TRIPOS>SUBSTRUCTURE
     1 UNK         1 GROUP             0       ****    0 ROOT    
