@<TRIPOS>MOLECULE
3R136
137   139    1
SMALL
USER_CHARGES


@<TRIPOS>ATOM
      1 CA         28.0635   24.6481    3.4920 C.3       0 UNK        -0.1979 
      2 C          28.0271   23.3089    2.7756 C.2       0 UNK         0.4864 
      3 O          26.9740   22.6718    2.7294 O.2       0 UNK        -0.5359 
      4 N          29.1592   22.8856    2.1936 N.am      1 UNK        -0.4318 
      5 CA         29.2575   21.6762    1.3590 C.3       1 UNK         0.0824 
      6 C6         30.7192   21.2129    1.1491 C.3       12 UNK        -0.0944 
      7 S7         31.5438   20.8336    2.7338 S.3       12 UNK        -0.2672 
      8 C8         32.9478   21.9939    2.7390 C.3       12 UNK         0.0333 
      9 C9         32.5023   23.4496    2.7560 C.ar      12 UNK        -0.0807 
     10 C10        31.9627   24.0099    3.9174 C.ar      12 UNK        -0.0894 
     11 C11        31.5735   25.3517    3.9396 C.ar      12 UNK        -0.0804 
     12 C12        31.7330   26.1332    2.7924 C.ar      12 UNK        -0.0824 
     13 C13        32.2666   25.5864    1.6190 C.ar      12 UNK        -0.0762 
     14 C14        32.6512   24.2427    1.6144 C.ar      12 UNK        -0.0782 
     15 C15        32.4806   26.4104    0.3481 C.3       12 UNK         0.0230 
     16 S16        31.4892   27.9364    0.2158 S.3       12 UNK        -0.2608 
     17 C17        29.7974   27.2732    0.0768 C.3       12 UNK        -0.0989 
     18 CA         28.7263   28.3388    0.4354 C.3       5 UNK         0.0716 
     19 N          27.5371   28.1774   -0.4024 N.am      5 UNK        -0.4135 
     20 C          26.8343   29.1755   -0.9559 C.2       4 UNK         0.5031 
     21 O          27.1027   30.3673   -0.8019 O.2       4 UNK        -0.5229 
     22 CA         25.6324   28.7936   -1.8437 C.3       4 UNK         0.0329 
     23 CB         25.9846   28.9797   -3.3288 C.3       4 UNK        -0.2001 
     24 N          25.1538   27.4238   -1.6380 N.am      4 UNK        -0.4303 
     25 C          24.5288   26.9922   -0.5345 C.2       3 UNK         0.5044 
     26 O          24.2477   27.7174    0.4192 O.2       3 UNK        -0.5152 
     27 CA         24.2192   25.4863   -0.4593 C.3       3 UNK         0.0319 
     28 CB         22.8389   25.1904   -1.0668 C.3       3 UNK        -0.2001 
     29 N          25.2285   24.6228   -1.0907 N.am      3 UNK        -0.4354 
     30 C          26.5255   24.5895   -0.7551 C.2       2 UNK         0.4964 
     31 O          27.0488   25.3681    0.0477 O.2       2 UNK        -0.5047 
     32 CA         27.4013   23.5333   -1.4376 C.3       2 UNK         0.0288 
     33 CB         28.1529   24.1412   -2.6330 C.3       2 UNK        -0.2113 
     34 N          28.3594   23.0972   -0.4302 N.am      2 UNK        -0.4145 
     35 C          28.5245   21.8435    0.0081 C.2       1 UNK         0.5006 
     36 O          28.0925   20.8490   -0.5775 O.2       1 UNK        -0.5103 
     37 C          28.3820   28.3416    1.9433 C.2       5 UNK         0.5055 
     38 O          29.2875   28.4973    2.7643 O.2       5 UNK        -0.5220 
     39 N          27.0992   28.1714    2.3034 N.am      6 UNK        -0.4450 
     40 CA         26.6038   28.1779    3.6822 C.3       6 UNK         0.0367 
     41 CB         25.0969   27.8741    3.6859 C.3       6 UNK        -0.1929 
     42 C          26.9131   29.5057    4.3960 C.2       6 UNK         0.5070 
     43 O          26.3380   30.5367    4.0429 O.2       6 UNK        -0.5237 
     44 N          27.8453   29.4420    5.3577 N.am      7 UNK        -0.4739 
     45 CA         28.4096   30.5534    6.1348 C.3       7 UNK         0.0276 
     46 CB         27.3321   31.2034    7.0298 C.3       7 UNK        -0.1927 
     47 C          29.1872   31.5880    5.2912 C.2       7 UNK         0.5013 
     48 O          29.3397   32.7301    5.7301 O.2       7 UNK        -0.5193 
     49 N          29.6815   31.1843    4.1115 N.am      8 UNK        -0.4253 
     50 CA         30.5404   32.0080    3.2581 C.3       8 UNK         0.0242 
     51 CB         30.5001   31.4592    1.8236 C.3       8 UNK        -0.2000 
     52 C          31.9857   32.0277    3.7796 C.2       8 UNK         0.4948 
     53 O          32.4020   31.1059    4.4841 O.2       8 UNK        -0.5275 
     54 N          32.7527   33.0467    3.3681 N.am      9 UNK        -0.4246 
     55 CA         34.1623   33.2454    3.7368 C.3       9 UNK         0.0261 
     56 CB         34.6419   34.5967    3.1816 C.3       9 UNK        -0.1959 
     57 C          35.1131   32.1142    3.2936 C.2       9 UNK         0.5033 
     58 O          36.1906   31.9733    3.8729 O.2       9 UNK        -0.5390 
     59 N          34.7005   31.3278    2.2904 N.am      10 UNK        -0.4215 
     60 CA         35.4013   30.1359    1.8112 C.3       10 UNK         0.0240 
     61 CB         34.9112   29.8095    0.3910 C.3       10 UNK        -0.1982 
     62 C          35.2591   28.9106    2.7378 C.2       10 UNK         0.4970 
     63 O          36.0124   27.9530    2.5560 O.2       10 UNK        -0.4916 
     64 N          34.3189   28.9386    3.6950 N.am      11 UNK        -0.4279 
     65 CA         34.1389   27.8924    4.7111 C.3       11 UNK         0.1003 
     66 C          35.3502   27.8075    5.6820 C.2       11 UNK         0.5709 
     67 N          35.8287   26.6076    5.9829 N.am      11 UNK        -0.7358 
     68 O          35.8374   28.8175    6.1869 O.2       11 UNK        -0.4999 
     69 C69        32.8011   28.0925    5.4711 C.3       12 UNK        -0.0954 
     70 S70        32.2377   26.5863    6.3333 S.3       12 UNK        -0.2268 
     71 C71        30.9658   25.9553    5.1972 C.3       12 UNK         0.0203 
     72 H72        28.8481   25.2928    3.0982 H         1 UNK         0.0888 
     73 H73        28.2239   24.5048    4.5598 H         1 UNK         0.0888 
     74 H74        27.1133   25.1622    3.3516 H         1 UNK         0.0888 
     75 H75        30.0167   23.4084    2.3144 H         1 UNK         0.3017 
     76 H76        28.7361   20.8752    1.8883 H         1 UNK         0.0873 
     77 H77        30.7449   20.3039    0.5448 H         1 UNK         0.0745 
     78 H78        31.2877   21.9587    0.5921 H         1 UNK         0.0745 
     79 H79        33.5616   21.7975    3.6192 H         1 UNK         0.0705 
     80 H80        33.5828   21.7899    1.8753 H         1 UNK         0.0705 
     81 H81        31.8470   23.4003    4.8036 H         1 UNK         0.1334 
     82 H82        31.4465   27.1739    2.8252 H         1 UNK         0.1417 
     83 H83        33.0795   23.8143    0.7180 H         1 UNK         0.1562 
     84 H84        32.2777   25.7959   -0.5306 H         1 UNK         0.0748 
     85 H85        33.5347   26.6864    0.2967 H         1 UNK         0.0748 
     86 H86        29.6852   26.3717    0.6819 H         1 UNK         0.0940 
     87 H87        29.6820   26.9471   -0.9581 H         1 UNK         0.0940 
     88 H88        29.1476   29.3228    0.2229 H         1 UNK         0.0703 
     89 H89        27.2226   27.2192   -0.5216 H         1 UNK         0.3081 
     90 H90        24.8174   29.4777   -1.5971 H         1 UNK         0.0719 
     91 H91        26.7894   28.3124   -3.6403 H         1 UNK         0.0809 
     92 H92        25.1225   28.7901   -3.9687 H         1 UNK         0.0809 
     93 H93        26.3134   30.0009   -3.5275 H         1 UNK         0.0809 
     94 H94        25.3461   26.7559   -2.3706 H         1 UNK         0.2990 
     95 H95        24.1874   25.2203    0.5995 H         1 UNK         0.0690 
     96 H96        22.5536   24.1489   -0.9172 H         1 UNK         0.0788 
     97 H97        22.8154   25.3956   -2.1379 H         1 UNK         0.0788 
     98 H98        22.0671   25.8047   -0.6003 H         1 UNK         0.0788 
     99 H99        24.8872   23.9623   -1.7749 H         1 UNK         0.2993 
    100 H100       26.7781   22.7009   -1.7720 H         1 UNK         0.0949 
    101 H101       28.7624   24.9964   -2.3379 H         1 UNK         0.0767 
    102 H102       28.8124   23.4072   -3.0963 H         1 UNK         0.0767 
    103 H103       27.4572   24.4828   -3.4004 H         1 UNK         0.0767 
    104 H104       28.6896   23.8448    0.1650 H         1 UNK         0.3013 
    105 H105       26.4023   28.0776    1.5772 H         1 UNK         0.3121 
    106 H106       27.1076   27.3721    4.2183 H         1 UNK         0.0774 
    107 H107       24.7043   27.8587    4.7034 H         1 UNK         0.0815 
    108 H108       24.5331   28.6241    3.1295 H         1 UNK         0.0815 
    109 H109       24.8864   26.9012    3.2410 H         1 UNK         0.0815 
    110 H110       28.2765   28.5438    5.5274 H         1 UNK         0.2987 
    111 H111       29.1534   30.1059    6.7962 H         1 UNK         0.0949 
    112 H112       26.5894   31.7438    6.4423 H         1 UNK         0.0806 
    113 H113       26.8095   30.4574    7.6284 H         1 UNK         0.0806 
    114 H114       27.7770   31.9176    7.7239 H         1 UNK         0.0806 
    115 H115       29.5436   30.2204    3.8231 H         1 UNK         0.3010 
    116 H116       30.1550   33.0300    3.2524 H         1 UNK         0.0829 
    117 H117       29.4787   31.4229    1.4442 H         1 UNK         0.0813 
    118 H118       31.0737   32.0872    1.1411 H         1 UNK         0.0813 
    119 H119       30.9173   30.4532    1.7691 H         1 UNK         0.0813 
    120 H120       32.3400   33.7557    2.7781 H         1 UNK         0.3038 
    121 H121       34.2091   33.2887    4.8271 H         1 UNK         0.0769 
    122 H122       34.5916   34.6269    2.0924 H         1 UNK         0.0811 
    123 H123       35.6778   34.7901    3.4647 H         1 UNK         0.0811 
    124 H124       34.0445   35.4218    3.5702 H         1 UNK         0.0811 
    125 H125       33.8056   31.5288    1.8699 H         1 UNK         0.3204 
    126 H126       36.4674   30.3660    1.7533 H         1 UNK         0.0748 
    127 H127       35.3942   28.9119    0.0022 H         1 UNK         0.0771 
    128 H128       33.8357   29.6381    0.3674 H         1 UNK         0.0771 
    129 H129       35.1355   30.6212   -0.3013 H         1 UNK         0.0771 
    130 H130       33.7530   29.7712    3.8213 H         1 UNK         0.2980 
    131 H131       34.0784   26.9485    4.1663 H         1 UNK         0.0545 
    132 H132       35.4186   25.7744    5.5910 H         1 UNK         0.3459 
    133 H133       36.6057   26.5337    6.6204 H         1 UNK         0.3459 
    134 H134       32.0160   28.4051    4.7811 H         1 UNK         0.0616 
    135 H135       32.8852   28.9017    6.1989 H         1 UNK         0.0616 
    136 H136       30.3807   25.1980    5.7206 H         1 UNK         0.0634 
    137 H137       30.2682   26.7548    4.9418 H         1 UNK         0.0634 
@<TRIPOS>BOND
     1    1    2 1    
     2    1   72 1    
     3    1   73 1    
     4    1   74 1    
     5    2    3 2    
     6    2    4 am   BACKBONE|DICT|INTERRES
     7    4    5 1    
     8    4   75 1    
     9    5    6 1    
    10    5   35 1    
    11    5   76 1    
    12    6    7 1    
    13    6   77 1    
    14    6   78 1    
    15    7    8 1    
    16    8    9 1    
    17    8   79 1    
    18    8   80 1    
    19    9   10 ar   
    20    9   14 ar   
    21   10   11 ar   
    22   10   81 1    
    23   11   12 ar   
    24   11   71 1    
    25   12   13 ar   
    26   12   82 1    
    27   13   14 ar   
    28   13   15 1    
    29   14   83 1    
    30   15   16 1    
    31   15   84 1    
    32   15   85 1    
    33   16   17 1    
    34   17   18 1    
    35   17   86 1    
    36   17   87 1    
    37   18   19 1    
    38   18   37 1    
    39   18   88 1    
    40   19   20 am   BACKBONE|DICT|INTERRES
    41   19   89 1    
    42   20   21 2    
    43   20   22 1    
    44   22   23 1    
    45   22   24 1    
    46   22   90 1    
    47   23   91 1    
    48   23   92 1    
    49   23   93 1    
    50   24   25 am   BACKBONE|DICT|INTERRES
    51   24   94 1    
    52   25   26 2    
    53   25   27 1    
    54   27   28 1    
    55   27   29 1    
    56   27   95 1    
    57   28   96 1    
    58   28   97 1    
    59   28   98 1    
    60   29   30 am   BACKBONE|DICT|INTERRES
    61   29   99 1    
    62   30   31 2    
    63   30   32 1    
    64   32   33 1    
    65   32   34 1    
    66   32  100 1    
    67   33  101 1    
    68   33  102 1    
    69   33  103 1    
    70   34   35 am   BACKBONE|DICT|INTERRES
    71   34  104 1    
    72   35   36 2    
    73   37   38 2    
    74   37   39 am   BACKBONE|DICT|INTERRES
    75   39   40 1    
    76   39  105 1    
    77   40   41 1    
    78   40   42 1    
    79   40  106 1    
    80   41  107 1    
    81   41  108 1    
    82   41  109 1    
    83   42   43 2    
    84   42   44 am   BACKBONE|DICT|INTERRES
    85   44   45 1    
    86   44  110 1    
    87   45   46 1    
    88   45   47 1    
    89   45  111 1    
    90   46  112 1    
    91   46  113 1    
    92   46  114 1    
    93   47   48 2    
    94   47   49 am   BACKBONE|DICT|INTERRES
    95   49   50 1    
    96   49  115 1    
    97   50   51 1    
    98   50   52 1    
    99   50  116 1    
   100   51  117 1    
   101   51  118 1    
   102   51  119 1    
   103   52   53 2    
   104   52   54 am   BACKBONE|DICT|INTERRES
   105   54   55 1    
   106   54  120 1    
   107   55   56 1    
   108   55   57 1    
   109   55  121 1    
   110   56  122 1    
   111   56  123 1    
   112   56  124 1    
   113   57   58 2    
   114   57   59 am   BACKBONE|DICT|INTERRES
   115   59   60 1    
   116   59  125 1    
   117   60   61 1    
   118   60   62 1    
   119   60  126 1    
   120   61  127 1    
   121   61  128 1    
   122   61  129 1    
   123   62   63 2    
   124   62   64 am   BACKBONE|DICT|INTERRES
   125   64   65 1    
   126   64  130 1    
   127   65   66 1    
   128   65   69 1    
   129   65  131 1    
   130   66   67 am   BACKBONE|DICT|INTERRES
   131   66   68 2    
   132   67  132 1    
   133   67  133 1    
   134   69   70 1    
   135   69  134 1    
   136   69  135 1    
   137   70   71 1    
   138   71  136 1    
   139   71  137 1    
@<TRIPOS>SUBSTRUCTURE
     1 UNK         1 GROUP             0       ****    0 ROOT    
