@<TRIPOS>MOLECULE
3R136
137   139    1
SMALL
USER_CHARGES


@<TRIPOS>ATOM
      1 CA         28.5011   20.2612    2.5836 C.3       0 UNK        -0.1979 
      2 C          28.6848   20.5297    1.0971 C.2       0 UNK         0.4864 
      3 O          29.4001   19.7866    0.4236 O.2       0 UNK        -0.5359 
      4 N          28.0482   21.5862    0.5849 N.am      1 UNK        -0.4318 
      5 CA         28.1082   22.0330   -0.8054 C.3       1 UNK         0.0824 
      6 C6         29.4608   22.7064   -1.1755 C.3       12 UNK        -0.0944 
      7 S7         29.9257   24.1028   -0.0897 S.3       12 UNK        -0.2672 
      8 C8         31.3587   23.3906    0.7727 C.3       12 UNK         0.0333 
      9 C9         31.7858   24.2677    1.9366 C.ar      12 UNK        -0.0807 
     10 C10        32.7928   25.2240    1.7756 C.ar      12 UNK        -0.0894 
     11 C11        33.1847   26.0259    2.8522 C.ar      12 UNK        -0.0804 
     12 C12        32.5527   25.8741    4.0916 C.ar      12 UNK        -0.0824 
     13 C13        31.5478   24.9174    4.2632 C.ar      12 UNK        -0.0762 
     14 C14        31.1736   24.1135    3.1827 C.ar      12 UNK        -0.0782 
     15 C15        30.8684   24.7418    5.6138 C.3       12 UNK         0.0230 
     16 S16        29.0839   25.0980    5.5299 S.3       12 UNK        -0.2608 
     17 C17        29.0722   26.9048    5.2738 C.3       12 UNK        -0.0989 
     18 CA         29.0137   27.3216    3.7782 C.3       5 UNK         0.0716 
     19 N          27.9381   26.6893    3.0029 N.am      5 UNK        -0.4135 
     20 C          26.6154   26.7532    3.2098 C.2       4 UNK         0.5031 
     21 O          26.0985   27.3361    4.1656 O.2       4 UNK        -0.5229 
     22 CA         25.7277   26.1131    2.1248 C.3       4 UNK         0.0329 
     23 CB         24.2709   26.6191    2.1758 C.3       4 UNK        -0.2001 
     24 N          26.2683   26.2653    0.7667 N.am      4 UNK        -0.4303 
     25 C          26.5992   27.4102    0.1418 C.2       3 UNK         0.5044 
     26 O          26.5374   28.5233    0.6686 O.2       3 UNK        -0.5152 
     27 CA         27.1195   27.3060   -1.3066 C.3       3 UNK         0.0319 
     28 CB         28.6319   27.5787   -1.3531 C.3       3 UNK        -0.2001 
     29 N          26.8558   26.0112   -1.9380 N.am      3 UNK        -0.4354 
     30 C          25.6489   25.5748   -2.3280 C.2       2 UNK         0.4964 
     31 O          24.6297   26.2645   -2.2928 O.2       2 UNK        -0.5047 
     32 CA         25.5508   24.1150   -2.8150 C.3       2 UNK         0.0288 
     33 CB         25.4911   24.0653   -4.3507 C.3       2 UNK        -0.2113 
     34 N          26.6340   23.2379   -2.3483 N.am      2 UNK        -0.4145 
     35 C          26.9052   22.9554   -1.0653 C.2       1 UNK         0.5006 
     36 O          26.2728   23.4240   -0.1124 O.2       1 UNK        -0.5103 
     37 C          29.0309   28.8589    3.6424 C.2       5 UNK         0.5055 
     38 O          30.0971   29.4264    3.4055 O.2       5 UNK        -0.5220 
     39 N          27.8679   29.5046    3.7961 N.am      6 UNK        -0.4450 
     40 CA         27.6655   30.9539    3.8169 C.3       6 UNK         0.0367 
     41 CB         26.1778   31.2575    4.0545 C.3       6 UNK        -0.1929 
     42 C          28.1732   31.6802    2.5628 C.2       6 UNK         0.5070 
     43 O          28.9120   32.6564    2.6938 O.2       6 UNK        -0.5237 
     44 N          27.8200   31.1793    1.3694 N.am      7 UNK        -0.4739 
     45 CA         28.2657   31.7608    0.0948 C.3       7 UNK         0.0276 
     46 CB         27.3208   31.3331   -1.0388 C.3       7 UNK        -0.1927 
     47 C          29.7354   31.4395   -0.2392 C.2       7 UNK         0.5013 
     48 O          30.3016   32.0753   -1.1282 O.2       7 UNK        -0.5193 
     49 N          30.3336   30.4934    0.4978 N.am      8 UNK        -0.4253 
     50 CA         31.7603   30.1685    0.4740 C.3       8 UNK         0.0242 
     51 CB         31.9203   28.6396    0.5311 C.3       8 UNK        -0.2000 
     52 C          32.5256   30.8695    1.6177 C.2       8 UNK         0.4948 
     53 O          33.6807   30.5228    1.8665 O.2       8 UNK        -0.5275 
     54 N          31.8765   31.8327    2.2940 N.am      9 UNK        -0.4246 
     55 CA         32.3856   32.6794    3.3789 C.3       9 UNK         0.0261 
     56 CB         33.5642   33.5512    2.8931 C.3       9 UNK        -0.1959 
     57 C          32.7017   31.9303    4.6890 C.2       9 UNK         0.5033 
     58 O          33.4543   32.4611    5.5081 O.2       9 UNK        -0.5390 
     59 N          32.1055   30.7421    4.8837 N.am      10 UNK        -0.4215 
     60 CA         32.2002   29.8783    6.0685 C.3       10 UNK         0.0240 
     61 CB         31.3744   30.4732    7.2278 C.3       10 UNK        -0.1982 
     62 C          33.6526   29.5452    6.4649 C.2       10 UNK         0.4970 
     63 O          34.0509   29.7665    7.6104 O.2       10 UNK        -0.4916 
     64 N          34.4148   29.0481    5.4830 N.am      11 UNK        -0.4279 
     65 CA         35.8306   28.6660    5.5865 C.3       11 UNK         0.1003 
     66 C          36.1545   27.6479    6.7216 C.2       11 UNK         0.5709 
     67 N          37.3791   27.6625    7.2316 N.am      11 UNK        -0.7358 
     68 O          35.3256   26.8295    7.1175 O.2       11 UNK        -0.4999 
     69 C69        36.3822   28.2154    4.2034 C.3       12 UNK        -0.0954 
     70 S70        35.7689   26.5925    3.6267 S.3       12 UNK        -0.2268 
     71 C71        34.2873   27.0598    2.6827 C.3       12 UNK         0.0203 
     72 H72        29.4660   20.2807    3.0896 H         1 UNK         0.0888 
     73 H73        27.8571   21.0035    3.0550 H         1 UNK         0.0888 
     74 H74        28.0552   19.2787    2.7357 H         1 UNK         0.0888 
     75 H75        27.4329   22.1533    1.1559 H         1 UNK         0.3017 
     76 H76        27.9711   21.1554   -1.4411 H         1 UNK         0.0873 
     77 H77        29.4460   23.0672   -2.2053 H         1 UNK         0.0745 
     78 H78        30.2528   21.9564   -1.1552 H         1 UNK         0.0745 
     79 H79        32.1808   23.2653    0.0662 H         1 UNK         0.0705 
     80 H80        31.1098   22.3930    1.1375 H         1 UNK         0.0705 
     81 H81        33.2708   25.3419    0.8127 H         1 UNK         0.1334 
     82 H82        32.8584   26.4909    4.9257 H         1 UNK         0.1417 
     83 H83        30.3936   23.3749    3.3104 H         1 UNK         0.1562 
     84 H84        31.3306   25.3721    6.3753 H         1 UNK         0.0748 
     85 H85        31.0053   23.7117    5.9456 H         1 UNK         0.0748 
     86 H86        29.9525   27.3323    5.7559 H         1 UNK         0.0940 
     87 H87        28.2153   27.3065    5.8175 H         1 UNK         0.0940 
     88 H88        29.9333   26.9764    3.3049 H         1 UNK         0.0703 
     89 H89        28.2463   26.1992    2.1758 H         1 UNK         0.3081 
     90 H90        25.7163   25.0421    2.3329 H         1 UNK         0.0719 
     91 H91        24.2136   27.6973    2.0213 H         1 UNK         0.0809 
     92 H92        23.6582   26.1383    1.4131 H         1 UNK         0.0809 
     93 H93        23.8131   26.4030    3.1418 H         1 UNK         0.0809 
     94 H94        26.3658   25.3949    0.2527 H         1 UNK         0.2990 
     95 H95        26.6111   28.0761   -1.8900 H         1 UNK         0.0690 
     96 H96        29.0035   27.5917   -2.3777 H         1 UNK         0.0788 
     97 H97        29.1957   26.8285   -0.8001 H         1 UNK         0.0788 
     98 H98        28.8734   28.5442   -0.9118 H         1 UNK         0.0788 
     99 H99        27.6397   25.3798   -2.0156 H         1 UNK         0.2993 
    100 H100       24.6139   23.7137   -2.4221 H         1 UNK         0.0949 
    101 H101       25.3179   23.0504   -4.7095 H         1 UNK         0.0767 
    102 H102       24.6761   24.6833   -4.7307 H         1 UNK         0.0767 
    103 H103       26.4145   24.4301   -4.8026 H         1 UNK         0.0767 
    104 H104       27.2038   22.8153   -3.0676 H         1 UNK         0.3013 
    105 H105       27.0500   28.9252    3.9737 H         1 UNK         0.3121 
    106 H106       28.2306   31.3424    4.6668 H         1 UNK         0.0774 
    107 H107       25.9968   32.3330    4.0826 H         1 UNK         0.0815 
    108 H108       25.5498   30.8399    3.2662 H         1 UNK         0.0815 
    109 H109       25.8367   30.8478    5.0054 H         1 UNK         0.0815 
    110 H110       27.2461   30.3411    1.3208 H         1 UNK         0.2987 
    111 H111       28.1979   32.8482    0.1774 H         1 UNK         0.0949 
    112 H112       27.3466   30.2599   -1.2088 H         1 UNK         0.0806 
    113 H113       26.2896   31.6119   -0.8216 H         1 UNK         0.0806 
    114 H114       27.5954   31.8156   -1.9778 H         1 UNK         0.0806 
    115 H115       29.7979   30.0595    1.2388 H         1 UNK         0.3010 
    116 H116       32.2021   30.5161   -0.4620 H         1 UNK         0.0829 
    117 H117       31.3582   28.1492   -0.2628 H         1 UNK         0.0813 
    118 H118       32.9640   28.3573    0.3980 H         1 UNK         0.0813 
    119 H119       31.5847   28.2291    1.4837 H         1 UNK         0.0813 
    120 H120       30.9080   32.0062    2.0515 H         1 UNK         0.3038 
    121 H121       31.5653   33.3553    3.6252 H         1 UNK         0.0769 
    122 H122       33.8307   34.3019    3.6381 H         1 UNK         0.0811 
    123 H123       33.3128   34.0844    1.9763 H         1 UNK         0.0811 
    124 H124       34.4568   32.9549    2.7019 H         1 UNK         0.0811 
    125 H125       31.4828   30.3967    4.1542 H         1 UNK         0.3204 
    126 H126       31.7391   28.9300    5.7914 H         1 UNK         0.0748 
    127 H127       31.3648   29.8017    8.0873 H         1 UNK         0.0771 
    128 H128       31.7799   31.4284    7.5634 H         1 UNK         0.0771 
    129 H129       30.3377   30.6346    6.9316 H         1 UNK         0.0771 
    130 H130       34.0012   28.9385    4.5707 H         1 UNK         0.2980 
    131 H131       36.3498   29.5894    5.8498 H         1 UNK         0.0545 
    132 H132       38.0731   28.3178    6.9072 H         1 UNK         0.3459 
    133 H133       37.6137   27.0032    7.9571 H         1 UNK         0.3459 
    134 H134       36.1678   28.9708    3.4452 H         1 UNK         0.0616 
    135 H135       37.4708   28.1541    4.2478 H         1 UNK         0.0616 
    136 H136       34.5692   27.1681    1.6348 H         1 UNK         0.0634 
    137 H137       33.9109   28.0309    3.0008 H         1 UNK         0.0634 
@<TRIPOS>BOND
     1    1    2 1    
     2    1   72 1    
     3    1   73 1    
     4    1   74 1    
     5    2    3 2    
     6    2    4 am   BACKBONE|DICT|INTERRES
     7    4    5 1    
     8    4   75 1    
     9    5    6 1    
    10    5   35 1    
    11    5   76 1    
    12    6    7 1    
    13    6   77 1    
    14    6   78 1    
    15    7    8 1    
    16    8    9 1    
    17    8   79 1    
    18    8   80 1    
    19    9   10 ar   
    20    9   14 ar   
    21   10   11 ar   
    22   10   81 1    
    23   11   12 ar   
    24   11   71 1    
    25   12   13 ar   
    26   12   82 1    
    27   13   14 ar   
    28   13   15 1    
    29   14   83 1    
    30   15   16 1    
    31   15   84 1    
    32   15   85 1    
    33   16   17 1    
    34   17   18 1    
    35   17   86 1    
    36   17   87 1    
    37   18   19 1    
    38   18   37 1    
    39   18   88 1    
    40   19   20 am   BACKBONE|DICT|INTERRES
    41   19   89 1    
    42   20   21 2    
    43   20   22 1    
    44   22   23 1    
    45   22   24 1    
    46   22   90 1    
    47   23   91 1    
    48   23   92 1    
    49   23   93 1    
    50   24   25 am   BACKBONE|DICT|INTERRES
    51   24   94 1    
    52   25   26 2    
    53   25   27 1    
    54   27   28 1    
    55   27   29 1    
    56   27   95 1    
    57   28   96 1    
    58   28   97 1    
    59   28   98 1    
    60   29   30 am   BACKBONE|DICT|INTERRES
    61   29   99 1    
    62   30   31 2    
    63   30   32 1    
    64   32   33 1    
    65   32   34 1    
    66   32  100 1    
    67   33  101 1    
    68   33  102 1    
    69   33  103 1    
    70   34   35 am   BACKBONE|DICT|INTERRES
    71   34  104 1    
    72   35   36 2    
    73   37   38 2    
    74   37   39 am   BACKBONE|DICT|INTERRES
    75   39   40 1    
    76   39  105 1    
    77   40   41 1    
    78   40   42 1    
    79   40  106 1    
    80   41  107 1    
    81   41  108 1    
    82   41  109 1    
    83   42   43 2    
    84   42   44 am   BACKBONE|DICT|INTERRES
    85   44   45 1    
    86   44  110 1    
    87   45   46 1    
    88   45   47 1    
    89   45  111 1    
    90   46  112 1    
    91   46  113 1    
    92   46  114 1    
    93   47   48 2    
    94   47   49 am   BACKBONE|DICT|INTERRES
    95   49   50 1    
    96   49  115 1    
    97   50   51 1    
    98   50   52 1    
    99   50  116 1    
   100   51  117 1    
   101   51  118 1    
   102   51  119 1    
   103   52   53 2    
   104   52   54 am   BACKBONE|DICT|INTERRES
   105   54   55 1    
   106   54  120 1    
   107   55   56 1    
   108   55   57 1    
   109   55  121 1    
   110   56  122 1    
   111   56  123 1    
   112   56  124 1    
   113   57   58 2    
   114   57   59 am   BACKBONE|DICT|INTERRES
   115   59   60 1    
   116   59  125 1    
   117   60   61 1    
   118   60   62 1    
   119   60  126 1    
   120   61  127 1    
   121   61  128 1    
   122   61  129 1    
   123   62   63 2    
   124   62   64 am   BACKBONE|DICT|INTERRES
   125   64   65 1    
   126   64  130 1    
   127   65   66 1    
   128   65   69 1    
   129   65  131 1    
   130   66   67 am   BACKBONE|DICT|INTERRES
   131   66   68 2    
   132   67  132 1    
   133   67  133 1    
   134   69   70 1    
   135   69  134 1    
   136   69  135 1    
   137   70   71 1    
   138   71  136 1    
   139   71  137 1    
@<TRIPOS>SUBSTRUCTURE
     1 UNK         1 GROUP             0       ****    0 ROOT    
