@<TRIPOS>MOLECULE
3R136
137   139    1
SMALL
USER_CHARGES


@<TRIPOS>ATOM
      1 CA         27.7284   18.5700    2.2481 C.3       0 UNK        -0.1979 
      2 C          28.0316   19.0026    0.8212 C.2       0 UNK         0.4864 
      3 O          27.5008   18.4137   -0.1214 O.2       0 UNK        -0.5359 
      4 N          28.8848   20.0230    0.6595 N.am      1 UNK        -0.4318 
      5 CA         29.2922   20.5942   -0.6314 C.3       1 UNK         0.0824 
      6 C6         30.4396   21.6242   -0.4738 C.3       12 UNK        -0.0944 
      7 S7         31.9308   20.9686    0.3495 S.3       12 UNK        -0.2672 
      8 C8         31.8505   21.7643    1.9983 C.3       12 UNK         0.0333 
      9 C9         31.9034   23.2966    2.0301 C.ar      12 UNK        -0.0807 
     10 C10        31.6144   23.9429    3.2380 C.ar      12 UNK        -0.0894 
     11 C11        31.6441   25.3377    3.3316 C.ar      12 UNK        -0.0804 
     12 C12        31.9507   26.0952    2.1997 C.ar      12 UNK        -0.0824 
     13 C13        32.2315   25.4712    0.9839 C.ar      12 UNK        -0.0762 
     14 C14        32.2274   24.0754    0.9096 C.ar      12 UNK        -0.0782 
     15 C15        32.5330   26.2998   -0.2545 C.3       12 UNK         0.0230 
     16 S16        31.0182   26.6490   -1.2044 S.3       12 UNK        -0.2608 
     17 C17        30.4512   28.2230   -0.4719 C.3       12 UNK        -0.0989 
     18 CA         28.9198   28.2374   -0.2063 C.3       5 UNK         0.0716 
     19 N          28.4962   27.2438    0.7935 N.am      5 UNK        -0.4135 
     20 C          28.6853   27.3211    2.1204 C.2       4 UNK         0.5031 
     21 O          29.3595   28.2024    2.6555 O.2       4 UNK        -0.5229 
     22 CA         27.9468   26.2926    3.0038 C.3       4 UNK         0.0329 
     23 CB         27.6163   26.8690    4.3978 C.3       4 UNK        -0.2001 
     24 N          26.7307   25.7250    2.4005 N.am      4 UNK        -0.4303 
     25 C          25.6562   26.3716    1.9217 C.2       3 UNK         0.5044 
     26 O          25.5701   27.5995    1.8596 O.2       3 UNK        -0.5152 
     27 CA         24.5199   25.4865    1.3629 C.3       3 UNK         0.0319 
     28 CB         23.2953   26.3098    0.9214 C.3       3 UNK        -0.2001 
     29 N          24.9710   24.6643    0.2335 N.am      3 UNK        -0.4354 
     30 C          25.7593   23.5859    0.3315 C.2       2 UNK         0.4964 
     31 O          26.1319   23.1219    1.4154 O.2       2 UNK        -0.5047 
     32 CA         26.2692   22.9588   -0.9776 C.3       2 UNK         0.0288 
     33 CB         26.7673   24.0369   -1.9705 C.3       2 UNK        -0.2113 
     34 N          27.3548   22.0624   -0.5947 N.am      2 UNK        -0.4145 
     35 C          28.1161   21.2752   -1.3611 C.2       1 UNK         0.5006 
     36 O          27.9488   21.0986   -2.5691 O.2       1 UNK        -0.5103 
     37 C          28.3846   29.6558    0.1235 C.2       5 UNK         0.5055 
     38 O          29.0847   30.6448   -0.1000 O.2       5 UNK        -0.5220 
     39 N          27.1789   29.7264    0.7169 N.am      6 UNK        -0.4450 
     40 CA         26.5200   30.9192    1.2673 C.3       6 UNK         0.0367 
     41 CB         26.1353   31.8974    0.1369 C.3       6 UNK        -0.1929 
     42 C          27.3135   31.6146    2.3970 C.2       6 UNK         0.5070 
     43 O          27.0442   32.7805    2.6889 O.2       6 UNK        -0.5237 
     44 N          28.2843   30.9044    2.9970 N.am      7 UNK        -0.4739 
     45 CA         29.2817   31.3832    3.9613 C.3       7 UNK         0.0276 
     46 CB         28.6207   31.7380    5.3092 C.3       7 UNK        -0.1927 
     47 C          30.1679   32.5189    3.4067 C.2       7 UNK         0.5013 
     48 O          30.6363   33.3602    4.1772 O.2       7 UNK        -0.5193 
     49 N          30.3851   32.5355    2.0815 N.am      8 UNK        -0.4253 
     50 CA         31.1603   33.5466    1.3591 C.3       8 UNK         0.0242 
     51 CB         30.8104   33.4691   -0.1382 C.3       8 UNK        -0.2000 
     52 C          32.6704   33.3949    1.6165 C.2       8 UNK         0.4948 
     53 O          33.3897   32.8627    0.7691 O.2       8 UNK        -0.5275 
     54 N          33.1046   33.8461    2.8022 N.am      9 UNK        -0.4246 
     55 CA         34.4656   33.7677    3.3479 C.3       9 UNK         0.0261 
     56 CB         35.4435   34.6351    2.5258 C.3       9 UNK        -0.1959 
     57 C          34.9479   32.3140    3.5277 C.2       9 UNK         0.5033 
     58 O          36.1140   32.0119    3.2644 O.2       9 UNK        -0.5390 
     59 N          34.0385   31.4412    3.9771 N.am      10 UNK        -0.4215 
     60 CA         34.2762   30.0246    4.2275 C.3       10 UNK         0.0240 
     61 CB         33.9119   29.2099    2.9742 C.3       10 UNK        -0.1982 
     62 C          33.4281   29.5917    5.4257 C.2       10 UNK         0.4970 
     63 O          32.2962   30.0610    5.5642 O.2       10 UNK        -0.4916 
     64 N          33.9932   28.7001    6.2485 N.am      11 UNK        -0.4279 
     65 CA         33.3716   28.0802    7.4345 C.3       11 UNK         0.1003 
     66 C          33.0206   29.0653    8.5927 C.2       11 UNK         0.5709 
     67 N          33.5905   30.2639    8.6347 N.am      11 UNK        -0.7358 
     68 O          32.2494   28.7302    9.4892 O.2       11 UNK        -0.4999 
     69 C69        32.1966   27.1233    7.0778 C.3       12 UNK        -0.0954 
     70 S70        32.6724   25.8630    5.8443 S.3       12 UNK        -0.2268 
     71 C71        31.3200   26.0336    4.6443 C.3       12 UNK         0.0203 
     72 H72        26.6631   18.6740    2.4527 H         1 UNK         0.0888 
     73 H73        28.0025   17.5249    2.3896 H         1 UNK         0.0888 
     74 H74        28.2736   19.1652    2.9804 H         1 UNK         0.0888 
     75 H75        29.3073   20.4435    1.4733 H         1 UNK         0.3017 
     76 H76        29.6449   19.7751   -1.2618 H         1 UNK         0.0873 
     77 H77        30.0871   22.5031    0.0689 H         1 UNK         0.0745 
     78 H78        30.7515   21.9886   -1.4549 H         1 UNK         0.0745 
     79 H79        32.6814   21.3838    2.5939 H         1 UNK         0.0705 
     80 H80        30.9404   21.4285    2.4967 H         1 UNK         0.0705 
     81 H81        31.3688   23.3589    4.1149 H         1 UNK         0.1334 
     82 H82        31.9489   27.1738    2.2610 H         1 UNK         0.1417 
     83 H83        32.4615   23.6075   -0.0356 H         1 UNK         0.1562 
     84 H84        33.2290   25.7584   -0.8970 H         1 UNK         0.0748 
     85 H85        33.0360   27.2303    0.0140 H         1 UNK         0.0748 
     86 H86        30.7298   29.0095   -1.1760 H         1 UNK         0.0940 
     87 H87        30.9976   28.4377    0.4473 H         1 UNK         0.0940 
     88 H88        28.4225   27.9589   -1.1367 H         1 UNK         0.0703 
     89 H89        27.9364   26.4819    0.4427 H         1 UNK         0.3081 
     90 H90        28.6386   25.4603    3.1381 H         1 UNK         0.0719 
     91 H91        27.1419   26.1215    5.0335 H         1 UNK         0.0809 
     92 H92        26.9450   27.7258    4.3289 H         1 UNK         0.0809 
     93 H93        28.5149   27.2063    4.9153 H         1 UNK         0.0809 
     94 H94        26.7019   24.7101    2.3380 H         1 UNK         0.2990 
     95 H95        24.1998   24.8257    2.1715 H         1 UNK         0.0690 
     96 H96        22.4808   25.6643    0.5923 H         1 UNK         0.0788 
     97 H97        23.5372   26.9896    0.1033 H         1 UNK         0.0788 
     98 H98        22.9138   26.9145    1.7454 H         1 UNK         0.0788 
     99 H99        24.7248   24.9980   -0.6875 H         1 UNK         0.2993 
    100 H100       25.4633   22.3734   -1.4239 H         1 UNK         0.0949 
    101 H101       27.5566   24.6516   -1.5353 H         1 UNK         0.0767 
    102 H102       27.1626   23.5937   -2.8841 H         1 UNK         0.0767 
    103 H103       25.9619   24.7029   -2.2808 H         1 UNK         0.0767 
    104 H104       27.5274   22.0807    0.4043 H         1 UNK         0.3013 
    105 H105       26.6923   28.8568    0.9246 H         1 UNK         0.3121 
    106 H106       25.5964   30.5641    1.7271 H         1 UNK         0.0774 
    107 H107       25.5104   32.7075    0.5149 H         1 UNK         0.0815 
    108 H108       27.0141   32.3532   -0.3203 H         1 UNK         0.0815 
    109 H109       25.5700   31.3949   -0.6478 H         1 UNK         0.0815 
    110 H110       28.4375   29.9480    2.6890 H         1 UNK         0.2987 
    111 H111       29.9545   30.5422    4.1384 H         1 UNK         0.0949 
    112 H112       27.9836   32.6192    5.2291 H         1 UNK         0.0806 
    113 H113       28.0121   30.9137    5.6808 H         1 UNK         0.0806 
    114 H114       29.3750   31.9488    6.0685 H         1 UNK         0.0806 
    115 H115       29.9616   31.8094    1.5135 H         1 UNK         0.3010 
    116 H116       30.8577   34.5334    1.7166 H         1 UNK         0.0829 
    117 H117       29.7454   33.6318   -0.3056 H         1 UNK         0.0813 
    118 H118       31.3495   34.2290   -0.7052 H         1 UNK         0.0813 
    119 H119       31.0689   32.4988   -0.5645 H         1 UNK         0.0813 
    120 H120       32.3903   34.1707    3.4473 H         1 UNK         0.3038 
    121 H121       34.4158   34.1934    4.3512 H         1 UNK         0.0769 
    122 H122       35.5945   34.2364    1.5222 H         1 UNK         0.0811 
    123 H123       35.0818   35.6587    2.4296 H         1 UNK         0.0811 
    124 H124       36.4218   34.6822    3.0058 H         1 UNK         0.0811 
    125 H125       33.1138   31.7680    4.2280 H         1 UNK         0.3204 
    126 H126       35.3298   29.8649    4.4680 H         1 UNK         0.0748 
    127 H127       34.5270   29.4987    2.1216 H         1 UNK         0.0771 
    128 H128       34.0683   28.1435    3.1424 H         1 UNK         0.0771 
    129 H129       32.8670   29.3530    2.6945 H         1 UNK         0.0771 
    130 H130       34.9311   28.3850    6.0474 H         1 UNK         0.2980 
    131 H131       34.1575   27.4554    7.8599 H         1 UNK         0.0545 
    132 H132       34.2346   30.5501    7.9156 H         1 UNK         0.3459 
    133 H133       33.3673   30.8894    9.3926 H         1 UNK         0.3459 
    134 H134       31.8538   26.5901    7.9661 H         1 UNK         0.0616 
    135 H135       31.3395   27.6964    6.7206 H         1 UNK         0.0616 
    136 H136       31.1250   27.0932    4.4697 H         1 UNK         0.0634 
    137 H137       30.4090   25.6127    5.0712 H         1 UNK         0.0634 
@<TRIPOS>BOND
     1    1    2 1    
     2    1   72 1    
     3    1   73 1    
     4    1   74 1    
     5    2    3 2    
     6    2    4 am   BACKBONE|DICT|INTERRES
     7    4    5 1    
     8    4   75 1    
     9    5    6 1    
    10    5   35 1    
    11    5   76 1    
    12    6    7 1    
    13    6   77 1    
    14    6   78 1    
    15    7    8 1    
    16    8    9 1    
    17    8   79 1    
    18    8   80 1    
    19    9   10 ar   
    20    9   14 ar   
    21   10   11 ar   
    22   10   81 1    
    23   11   12 ar   
    24   11   71 1    
    25   12   13 ar   
    26   12   82 1    
    27   13   14 ar   
    28   13   15 1    
    29   14   83 1    
    30   15   16 1    
    31   15   84 1    
    32   15   85 1    
    33   16   17 1    
    34   17   18 1    
    35   17   86 1    
    36   17   87 1    
    37   18   19 1    
    38   18   37 1    
    39   18   88 1    
    40   19   20 am   BACKBONE|DICT|INTERRES
    41   19   89 1    
    42   20   21 2    
    43   20   22 1    
    44   22   23 1    
    45   22   24 1    
    46   22   90 1    
    47   23   91 1    
    48   23   92 1    
    49   23   93 1    
    50   24   25 am   BACKBONE|DICT|INTERRES
    51   24   94 1    
    52   25   26 2    
    53   25   27 1    
    54   27   28 1    
    55   27   29 1    
    56   27   95 1    
    57   28   96 1    
    58   28   97 1    
    59   28   98 1    
    60   29   30 am   BACKBONE|DICT|INTERRES
    61   29   99 1    
    62   30   31 2    
    63   30   32 1    
    64   32   33 1    
    65   32   34 1    
    66   32  100 1    
    67   33  101 1    
    68   33  102 1    
    69   33  103 1    
    70   34   35 am   BACKBONE|DICT|INTERRES
    71   34  104 1    
    72   35   36 2    
    73   37   38 2    
    74   37   39 am   BACKBONE|DICT|INTERRES
    75   39   40 1    
    76   39  105 1    
    77   40   41 1    
    78   40   42 1    
    79   40  106 1    
    80   41  107 1    
    81   41  108 1    
    82   41  109 1    
    83   42   43 2    
    84   42   44 am   BACKBONE|DICT|INTERRES
    85   44   45 1    
    86   44  110 1    
    87   45   46 1    
    88   45   47 1    
    89   45  111 1    
    90   46  112 1    
    91   46  113 1    
    92   46  114 1    
    93   47   48 2    
    94   47   49 am   BACKBONE|DICT|INTERRES
    95   49   50 1    
    96   49  115 1    
    97   50   51 1    
    98   50   52 1    
    99   50  116 1    
   100   51  117 1    
   101   51  118 1    
   102   51  119 1    
   103   52   53 2    
   104   52   54 am   BACKBONE|DICT|INTERRES
   105   54   55 1    
   106   54  120 1    
   107   55   56 1    
   108   55   57 1    
   109   55  121 1    
   110   56  122 1    
   111   56  123 1    
   112   56  124 1    
   113   57   58 2    
   114   57   59 am   BACKBONE|DICT|INTERRES
   115   59   60 1    
   116   59  125 1    
   117   60   61 1    
   118   60   62 1    
   119   60  126 1    
   120   61  127 1    
   121   61  128 1    
   122   61  129 1    
   123   62   63 2    
   124   62   64 am   BACKBONE|DICT|INTERRES
   125   64   65 1    
   126   64  130 1    
   127   65   66 1    
   128   65   69 1    
   129   65  131 1    
   130   66   67 am   BACKBONE|DICT|INTERRES
   131   66   68 2    
   132   67  132 1    
   133   67  133 1    
   134   69   70 1    
   135   69  134 1    
   136   69  135 1    
   137   70   71 1    
   138   71  136 1    
   139   71  137 1    
@<TRIPOS>SUBSTRUCTURE
     1 UNK         1 GROUP             0       ****    0 ROOT    
