@<TRIPOS>MOLECULE
3R136
137   139    1
SMALL
USER_CHARGES


@<TRIPOS>ATOM
      1 CA         26.5481   21.0300   -1.7334 C.3       0 UNK        -0.1979 
      2 C          27.4717   22.1061   -1.1830 C.2       0 UNK         0.4864 
      3 O          26.9925   23.1384   -0.7164 O.2       0 UNK        -0.5359 
      4 N          28.7924   21.8805   -1.2557 N.am      1 UNK        -0.4318 
      5 CA         29.8683   22.7367   -0.7200 C.3       1 UNK         0.0824 
      6 C6         29.8252   22.8878    0.8295 C.3       12 UNK        -0.0944 
      7 S7         29.7657   21.2817    1.6963 S.3       12 UNK        -0.2672 
      8 C8         31.3192   21.2987    2.6533 C.3       12 UNK         0.0333 
      9 C9         31.2979   22.2495    3.8484 C.ar      12 UNK        -0.0807 
     10 C10        32.4242   23.0268    4.1363 C.ar      12 UNK        -0.0894 
     11 C11        32.4442   23.8712    5.2512 C.ar      12 UNK        -0.0804 
     12 C12        31.3201   23.9422    6.0809 C.ar      12 UNK        -0.0824 
     13 C13        30.1879   23.1679    5.8093 C.ar      12 UNK        -0.0762 
     14 C14        30.1878   22.3186    4.6985 C.ar      12 UNK        -0.0782 
     15 C15        28.9759   23.2159    6.7309 C.3       12 UNK         0.0230 
     16 S16        27.5157   23.9397    5.9154 S.3       12 UNK        -0.2608 
     17 C17        27.9093   25.7237    5.9138 C.3       12 UNK        -0.0989 
     18 CA         28.6427   26.1902    4.6223 C.3       5 UNK         0.0716 
     19 N          28.0135   25.7934    3.3598 N.am      5 UNK        -0.4135 
     20 C          26.7517   26.0191    2.9727 C.2       4 UNK         0.5031 
     21 O          25.8859   26.5441    3.6770 O.2       4 UNK        -0.5229 
     22 CA         26.4229   25.5771    1.5352 C.3       4 UNK         0.0329 
     23 CB         24.9182   25.6523    1.1976 C.3       4 UNK        -0.2001 
     24 N          27.2286   26.3025    0.5446 N.am      4 UNK        -0.4303 
     25 C          27.2310   27.6251    0.3095 C.2       3 UNK         0.5044 
     26 O          26.4719   28.4261    0.8554 O.2       3 UNK        -0.5152 
     27 CA         28.2482   28.1642   -0.7129 C.3       3 UNK         0.0319 
     28 CB         29.3472   28.9632    0.0036 C.3       3 UNK        -0.2001 
     29 N          28.8698   27.1165   -1.5286 N.am      3 UNK        -0.4354 
     30 C          28.3432   26.6084   -2.6500 C.2       2 UNK         0.4964 
     31 O          27.2651   26.9687   -3.1230 O.2       2 UNK        -0.5047 
     32 CA         29.1477   25.5094   -3.3684 C.3       2 UNK         0.0288 
     33 CB         30.4991   26.0342   -3.8973 C.3       2 UNK        -0.2113 
     34 N          29.3030   24.2867   -2.5688 N.am      2 UNK        -0.4145 
     35 C          29.9831   24.1116   -1.4250 C.2       1 UNK         0.5006 
     36 O          30.6837   24.9902   -0.9216 O.2       1 UNK        -0.5103 
     37 C          28.9992   27.6928    4.6002 C.2       5 UNK         0.5055 
     38 O          28.9536   28.3233    3.5406 O.2       5 UNK        -0.5220 
     39 N          29.4159   28.2428    5.7501 N.am      6 UNK        -0.4450 
     40 CA         29.9764   29.5920    5.9125 C.3       6 UNK         0.0367 
     41 CB         30.7426   29.6492    7.2472 C.3       6 UNK        -0.1929 
     42 C          28.9540   30.7427    5.7633 C.2       6 UNK         0.5070 
     43 O          28.9188   31.6537    6.5917 O.2       6 UNK        -0.5237 
     44 N          28.1524   30.6948    4.6951 N.am      7 UNK        -0.4739 
     45 CA         27.2452   31.7562    4.2528 C.3       7 UNK         0.0276 
     46 CB         26.0746   31.1120    3.4922 C.3       7 UNK        -0.1927 
     47 C          27.9551   32.7995    3.3674 C.2       7 UNK         0.5013 
     48 O          27.3719   33.8475    3.0865 O.2       7 UNK        -0.5193 
     49 N          29.1867   32.4973    2.9418 N.am      8 UNK        -0.4253 
     50 CA         30.0708   33.3456    2.1495 C.3       8 UNK         0.0242 
     51 CB         30.0130   32.8900    0.6789 C.3       8 UNK        -0.2000 
     52 C          31.4935   33.2490    2.7231 C.2       8 UNK         0.4948 
     53 O          31.7201   32.5157    3.6899 O.2       8 UNK        -0.5275 
     54 N          32.4313   33.9888    2.1126 N.am      9 UNK        -0.4246 
     55 CA         33.8483   34.0508    2.4991 C.3       9 UNK         0.0261 
     56 CB         34.5505   35.1422    1.6745 C.3       9 UNK        -0.1959 
     57 C          34.6050   32.7131    2.3754 C.2       9 UNK         0.5033 
     58 O          35.5837   32.5094    3.0956 O.2       9 UNK        -0.5390 
     59 N          34.1329   31.8302    1.4887 N.am      10 UNK        -0.4215 
     60 CA         34.5212   30.4260    1.4021 C.3       10 UNK         0.0240 
     61 CB         35.0106   30.1155   -0.0220 C.3       10 UNK        -0.1982 
     62 C          33.2761   29.6003    1.7406 C.2       10 UNK         0.4970 
     63 O          32.1829   29.9606    1.3000 O.2       10 UNK        -0.4916 
     64 N          33.4578   28.5231    2.5106 N.am      11 UNK        -0.4279 
     65 CA         32.3678   27.6634    2.9978 C.3       11 UNK         0.1003 
     66 C          31.8039   26.6391    1.9679 C.2       11 UNK         0.5709 
     67 N          32.3495   26.5373    0.7635 N.am      11 UNK        -0.7358 
     68 O          30.8331   25.9445    2.2545 O.2       11 UNK        -0.4999 
     69 C69        32.7218   27.0280    4.3664 C.3       12 UNK        -0.0954 
     70 S70        34.1368   25.8791    4.2915 S.3       12 UNK        -0.2268 
     71 C71        33.6958   24.6750    5.5847 C.3       12 UNK         0.0203 
     72 H72        27.1023   20.1810   -2.1333 H         1 UNK         0.0888 
     73 H73        25.8906   20.6645   -0.9450 H         1 UNK         0.0888 
     74 H74        25.9290   21.4387   -2.5315 H         1 UNK         0.0888 
     75 H75        29.1111   21.0125   -1.6643 H         1 UNK         0.3017 
     76 H76        30.7983   22.2213   -0.9643 H         1 UNK         0.0873 
     77 H77        30.6954   23.4432    1.1841 H         1 UNK         0.0745 
     78 H78        28.9563   23.4702    1.1375 H         1 UNK         0.0745 
     79 H79        31.5078   20.2901    3.0228 H         1 UNK         0.0705 
     80 H80        32.1433   21.5386    1.9794 H         1 UNK         0.0705 
     81 H81        33.2964   22.9692    3.4993 H         1 UNK         0.1334 
     82 H82        31.3324   24.5886    6.9478 H         1 UNK         0.1417 
     83 H83        29.3168   21.7098    4.4974 H         1 UNK         0.1562 
     84 H84        29.1961   23.7651    7.6476 H         1 UNK         0.0748 
     85 H85        28.7312   22.1989    7.0406 H         1 UNK         0.0748 
     86 H86        28.5046   25.9362    6.8024 H         1 UNK         0.0940 
     87 H87        26.9763   26.2746    6.0437 H         1 UNK         0.0940 
     88 H88        29.6048   25.6803    4.6098 H         1 UNK         0.0703 
     89 H89        28.6749   25.4548    2.6728 H         1 UNK         0.3081 
     90 H90        26.7139   24.5286    1.4681 H         1 UNK         0.0719 
     91 H91        24.5314   26.6692    1.2666 H         1 UNK         0.0809 
     92 H92        24.7228   25.2845    0.1902 H         1 UNK         0.0809 
     93 H93        24.3368   25.0380    1.8860 H         1 UNK         0.0809 
     94 H94        27.8782   25.7379    0.0165 H         1 UNK         0.2990 
     95 H95        27.7129   28.8519   -1.3711 H         1 UNK         0.0690 
     96 H96        30.0672   29.3816   -0.6996 H         1 UNK         0.0788 
     97 H97        29.8919   28.3445    0.7153 H         1 UNK         0.0788 
     98 H98        28.9220   29.7946    0.5676 H         1 UNK         0.0788 
     99 H99        29.7378   26.7117   -1.1901 H         1 UNK         0.2993 
    100 H100       28.5581   25.2157   -4.2387 H         1 UNK         0.0949 
    101 H101       31.0225   25.2680   -4.4691 H         1 UNK         0.0767 
    102 H102       30.3492   26.8870   -4.5606 H         1 UNK         0.0767 
    103 H103       31.1622   26.3631   -3.0969 H         1 UNK         0.0767 
    104 H104       28.7419   23.5048   -2.8763 H         1 UNK         0.3013 
    105 H105       29.3956   27.6789    6.5867 H         1 UNK         0.3121 
    106 H106       30.7100   29.7413    5.1170 H         1 UNK         0.0774 
    107 H107       31.2445   30.6101    7.3697 H         1 UNK         0.0815 
    108 H108       30.0762   29.5181    8.1005 H         1 UNK         0.0815 
    109 H109       31.5133   28.8798    7.2980 H         1 UNK         0.0815 
    110 H110       28.2609   29.8921    4.0751 H         1 UNK         0.2987 
    111 H111       26.8469   32.2793    5.1249 H         1 UNK         0.0949 
    112 H112       26.4168   30.5835    2.6012 H         1 UNK         0.0806 
    113 H113       25.5394   30.3975    4.1178 H         1 UNK         0.0806 
    114 H114       25.3540   31.8647    3.1696 H         1 UNK         0.0806 
    115 H115       29.6189   31.6528    3.2922 H         1 UNK         0.3010 
    116 H116       29.7528   34.3878    2.2231 H         1 UNK         0.0829 
    117 H117       28.9902   32.9052    0.3016 H         1 UNK         0.0813 
    118 H118       30.6004   33.5423    0.0324 H         1 UNK         0.0813 
    119 H119       30.3953   31.8760    0.5569 H         1 UNK         0.0813 
    120 H120       32.1554   34.5689    1.3329 H         1 UNK         0.3038 
    121 H121       33.8858   34.3423    3.5510 H         1 UNK         0.0769 
    122 H122       34.0905   36.1180    1.8313 H         1 UNK         0.0811 
    123 H123       34.5221   34.9230    0.6063 H         1 UNK         0.0811 
    124 H124       35.5997   35.2325    1.9600 H         1 UNK         0.0811 
    125 H125       33.2788   32.0629    1.0009 H         1 UNK         0.3204 
    126 H126       35.3161   30.1942    2.1144 H         1 UNK         0.0748 
    127 H127       35.8744   30.7269   -0.2837 H         1 UNK         0.0771 
    128 H128       35.3126   29.0713   -0.1124 H         1 UNK         0.0771 
    129 H129       34.2343   30.2979   -0.7667 H         1 UNK         0.0771 
    130 H130       34.3875   28.2655    2.8079 H         1 UNK         0.2980 
    131 H131       31.5288   28.3306    3.1936 H         1 UNK         0.0545 
    132 H132       31.9194   25.8960    0.1034 H         1 UNK         0.3459 
    133 H133       33.1362   27.1034    0.4960 H         1 UNK         0.3459 
    134 H134       31.8519   26.5138    4.7733 H         1 UNK         0.0616 
    135 H135       32.9595   27.8113    5.0875 H         1 UNK         0.0616 
    136 H136       33.5807   25.2039    6.5321 H         1 UNK         0.0634 
    137 H137       34.5308   23.9861    5.7184 H         1 UNK         0.0634 
@<TRIPOS>BOND
     1    1    2 1    
     2    1   72 1    
     3    1   73 1    
     4    1   74 1    
     5    2    3 2    
     6    2    4 am   BACKBONE|DICT|INTERRES
     7    4    5 1    
     8    4   75 1    
     9    5    6 1    
    10    5   35 1    
    11    5   76 1    
    12    6    7 1    
    13    6   77 1    
    14    6   78 1    
    15    7    8 1    
    16    8    9 1    
    17    8   79 1    
    18    8   80 1    
    19    9   10 ar   
    20    9   14 ar   
    21   10   11 ar   
    22   10   81 1    
    23   11   12 ar   
    24   11   71 1    
    25   12   13 ar   
    26   12   82 1    
    27   13   14 ar   
    28   13   15 1    
    29   14   83 1    
    30   15   16 1    
    31   15   84 1    
    32   15   85 1    
    33   16   17 1    
    34   17   18 1    
    35   17   86 1    
    36   17   87 1    
    37   18   19 1    
    38   18   37 1    
    39   18   88 1    
    40   19   20 am   BACKBONE|DICT|INTERRES
    41   19   89 1    
    42   20   21 2    
    43   20   22 1    
    44   22   23 1    
    45   22   24 1    
    46   22   90 1    
    47   23   91 1    
    48   23   92 1    
    49   23   93 1    
    50   24   25 am   BACKBONE|DICT|INTERRES
    51   24   94 1    
    52   25   26 2    
    53   25   27 1    
    54   27   28 1    
    55   27   29 1    
    56   27   95 1    
    57   28   96 1    
    58   28   97 1    
    59   28   98 1    
    60   29   30 am   BACKBONE|DICT|INTERRES
    61   29   99 1    
    62   30   31 2    
    63   30   32 1    
    64   32   33 1    
    65   32   34 1    
    66   32  100 1    
    67   33  101 1    
    68   33  102 1    
    69   33  103 1    
    70   34   35 am   BACKBONE|DICT|INTERRES
    71   34  104 1    
    72   35   36 2    
    73   37   38 2    
    74   37   39 am   BACKBONE|DICT|INTERRES
    75   39   40 1    
    76   39  105 1    
    77   40   41 1    
    78   40   42 1    
    79   40  106 1    
    80   41  107 1    
    81   41  108 1    
    82   41  109 1    
    83   42   43 2    
    84   42   44 am   BACKBONE|DICT|INTERRES
    85   44   45 1    
    86   44  110 1    
    87   45   46 1    
    88   45   47 1    
    89   45  111 1    
    90   46  112 1    
    91   46  113 1    
    92   46  114 1    
    93   47   48 2    
    94   47   49 am   BACKBONE|DICT|INTERRES
    95   49   50 1    
    96   49  115 1    
    97   50   51 1    
    98   50   52 1    
    99   50  116 1    
   100   51  117 1    
   101   51  118 1    
   102   51  119 1    
   103   52   53 2    
   104   52   54 am   BACKBONE|DICT|INTERRES
   105   54   55 1    
   106   54  120 1    
   107   55   56 1    
   108   55   57 1    
   109   55  121 1    
   110   56  122 1    
   111   56  123 1    
   112   56  124 1    
   113   57   58 2    
   114   57   59 am   BACKBONE|DICT|INTERRES
   115   59   60 1    
   116   59  125 1    
   117   60   61 1    
   118   60   62 1    
   119   60  126 1    
   120   61  127 1    
   121   61  128 1    
   122   61  129 1    
   123   62   63 2    
   124   62   64 am   BACKBONE|DICT|INTERRES
   125   64   65 1    
   126   64  130 1    
   127   65   66 1    
   128   65   69 1    
   129   65  131 1    
   130   66   67 am   BACKBONE|DICT|INTERRES
   131   66   68 2    
   132   67  132 1    
   133   67  133 1    
   134   69   70 1    
   135   69  134 1    
   136   69  135 1    
   137   70   71 1    
   138   71  136 1    
   139   71  137 1    
@<TRIPOS>SUBSTRUCTURE
     1 UNK         1 GROUP             0       ****    0 ROOT    
