@<TRIPOS>MOLECULE
3R136
137   139    1
SMALL
USER_CHARGES


@<TRIPOS>ATOM
      1 CA         31.2953   23.7682   -2.4452 C.3       0 UNK        -0.1979 
      2 C          30.0196   22.9350   -2.5309 C.2       0 UNK         0.4864 
      3 O          29.5322   22.7066   -3.6369 O.2       0 UNK        -0.5359 
      4 N          29.4317   22.4649   -1.4240 N.am      1 UNK        -0.4318 
      5 CA         29.8085   22.6783   -0.0241 C.3       1 UNK         0.0824 
      6 C6         30.4557   21.4070    0.5987 C.3       12 UNK        -0.0944 
      7 S7         32.2416   21.3072    0.2339 S.3       12 UNK        -0.2672 
      8 C8         33.0143   21.6849    1.8492 C.3       12 UNK         0.0333 
      9 C9         32.4415   22.9344    2.5098 C.ar      12 UNK        -0.0807 
     10 C10        31.8531   22.8529    3.7759 C.ar      12 UNK        -0.0894 
     11 C11        31.2627   23.9752    4.3650 C.ar      12 UNK        -0.0804 
     12 C12        31.2343   25.1816    3.6529 C.ar      12 UNK        -0.0824 
     13 C13        31.8479   25.2840    2.4015 C.ar      12 UNK        -0.0762 
     14 C14        32.4742   24.1643    1.8479 C.ar      12 UNK        -0.0782 
     15 C15        31.7999   26.5887    1.6237 C.3       12 UNK         0.0230 
     16 S16        30.7006   26.4070    0.1912 S.3       12 UNK        -0.2608 
     17 C17        30.5425   28.1227   -0.4072 C.3       12 UNK        -0.0989 
     18 CA         29.2108   28.7990    0.0144 C.3       5 UNK         0.0716 
     19 N          28.0529   27.9336   -0.2456 N.am      5 UNK        -0.4135 
     20 C          27.3910   27.8795   -1.4092 C.2       4 UNK         0.5031 
     21 O          27.5851   28.6616   -2.3411 O.2       4 UNK        -0.5229 
     22 CA         26.3597   26.7476   -1.5991 C.3       4 UNK         0.0329 
     23 CB         26.9895   25.5959   -2.4002 C.3       4 UNK        -0.2001 
     24 N          25.8225   26.2075   -0.3491 N.am      4 UNK        -0.4303 
     25 C          25.0466   26.8810    0.5112 C.2       3 UNK         0.5044 
     26 O          24.6171   28.0147    0.2978 O.2       3 UNK        -0.5152 
     27 CA         24.7166   26.1971    1.8538 C.3       3 UNK         0.0319 
     28 CB         23.2881   25.6301    1.8264 C.3       3 UNK        -0.2001 
     29 N          25.6423   25.1355    2.2754 N.am      3 UNK        -0.4354 
     30 C          26.9727   25.2445    2.4024 C.2       2 UNK         0.4964 
     31 O          27.6036   26.2551    2.0948 O.2       2 UNK        -0.5047 
     32 CA         27.7456   24.0326    2.9475 C.3       2 UNK         0.0288 
     33 CB         26.8589   22.8592    3.4239 C.3       2 UNK        -0.2113 
     34 N          28.7592   23.5706    1.9942 N.am      2 UNK        -0.4145 
     35 C          28.5493   23.1045    0.7540 C.2       1 UNK         0.5006 
     36 O          27.4330   22.9978    0.2352 O.2       1 UNK        -0.5103 
     37 C          29.2471   29.3504    1.4554 C.2       5 UNK         0.5055 
     38 O          30.2060   30.0458    1.8078 O.2       5 UNK        -0.5220 
     39 N          28.2182   29.0599    2.2646 N.am      6 UNK        -0.4450 
     40 CA         28.0281   29.5621    3.6262 C.3       6 UNK         0.0367 
     41 CB         26.7373   28.9677    4.2109 C.3       6 UNK        -0.1929 
     42 C          27.9810   31.0974    3.6585 C.2       6 UNK         0.5070 
     43 O          27.3233   31.7009    2.8082 O.2       6 UNK        -0.5237 
     44 N          28.7159   31.6956    4.6053 N.am      7 UNK        -0.4739 
     45 CA         28.9582   33.1348    4.8066 C.3       7 UNK         0.0276 
     46 CB         27.6487   33.8969    5.0901 C.3       7 UNK        -0.1927 
     47 C          29.7683   33.8223    3.6872 C.2       7 UNK         0.5013 
     48 O          30.5842   34.6910    3.9963 O.2       7 UNK        -0.5193 
     49 N          29.5493   33.4268    2.4256 N.am      8 UNK        -0.4253 
     50 CA         30.2698   33.8968    1.2396 C.3       8 UNK         0.0242 
     51 CB         29.5870   33.3521   -0.0261 C.3       8 UNK        -0.2000 
     52 C          31.7586   33.5145    1.2675 C.2       8 UNK         0.4948 
     53 O          32.6081   34.3714    1.0190 O.2       8 UNK        -0.5275 
     54 N          32.0374   32.2478    1.5970 N.am      9 UNK        -0.4246 
     55 CA         33.3787   31.7239    1.8634 C.3       9 UNK         0.0261 
     56 CB         33.7870   30.7384    0.7568 C.3       9 UNK        -0.1959 
     57 C          33.4367   31.0454    3.2397 C.2       9 UNK         0.5033 
     58 O          34.4555   31.1749    3.9203 O.2       9 UNK        -0.5390 
     59 N          32.3453   30.3623    3.6250 N.am      10 UNK        -0.4215 
     60 CA         32.1553   29.5884    4.8577 C.3       10 UNK         0.0240 
     61 CB         32.3222   30.4781    6.1098 C.3       10 UNK        -0.1982 
     62 C          33.0156   28.3102    4.9134 C.2       10 UNK         0.4970 
     63 O          33.7698   28.0154    3.9841 O.2       10 UNK        -0.4916 
     64 N          32.8314   27.5390    5.9906 N.am      11 UNK        -0.4279 
     65 CA         33.4391   26.2122    6.1908 C.3       11 UNK         0.1003 
     66 C          34.9400   26.2320    6.6034 C.2       11 UNK         0.5709 
     67 N          35.5413   27.3825    6.8826 N.am      11 UNK        -0.7358 
     68 O          35.5739   25.1812    6.6674 O.2       11 UNK        -0.4999 
     69 C69        32.6003   25.3324    7.1604 C.3       12 UNK        -0.0954 
     70 S70        30.8076   25.3245    6.8005 S.3       12 UNK        -0.2268 
     71 C71        30.6292   23.8437    5.7497 C.3       12 UNK         0.0203 
     72 H72        31.8372   23.7240   -3.3895 H         1 UNK         0.0888 
     73 H73        31.0496   24.8112   -2.2525 H         1 UNK         0.0888 
     74 H74        31.9731   23.4178   -1.6704 H         1 UNK         0.0888 
     75 H75        28.5426   21.9930   -1.5228 H         1 UNK         0.3017 
     76 H76        30.4946   23.5192    0.0544 H         1 UNK         0.0873 
     77 H77        30.3271   21.3641    1.6815 H         1 UNK         0.0745 
     78 H78        29.9722   20.5046    0.2201 H         1 UNK         0.0745 
     79 H79        34.0875   21.8172    1.7058 H         1 UNK         0.0705 
     80 H80        32.8965   20.8163    2.4990 H         1 UNK         0.0705 
     81 H81        31.8431   21.9071    4.3010 H         1 UNK         0.1334 
     82 H82        30.7429   26.0468    4.0759 H         1 UNK         0.1417 
     83 H83        32.9354   24.2365    0.8719 H         1 UNK         0.1562 
     84 H84        32.8022   26.8628    1.2914 H         1 UNK         0.0748 
     85 H85        31.4450   27.4030    2.2567 H         1 UNK         0.0748 
     86 H86        30.5872   28.0842   -1.4966 H         1 UNK         0.0940 
     87 H87        31.4103   28.7099   -0.1091 H         1 UNK         0.0940 
     88 H88        29.1036   29.6989   -0.5946 H         1 UNK         0.0703 
     89 H89        27.8703   27.2235    0.4592 H         1 UNK         0.3081 
     90 H90        25.5265   27.1551   -2.1755 H         1 UNK         0.0719 
     91 H91        27.3708   25.9477   -3.3599 H         1 UNK         0.0809 
     92 H92        27.8255   25.1444   -1.8641 H         1 UNK         0.0809 
     93 H93        26.2629   24.8107   -2.6097 H         1 UNK         0.0809 
     94 H94        26.1276   25.2797   -0.0861 H         1 UNK         0.2990 
     95 H95        24.7578   26.9744    2.6192 H         1 UNK         0.0690 
     96 H96        22.9904   25.2528    2.8049 H         1 UNK         0.0788 
     97 H97        23.1922   24.8157    1.1072 H         1 UNK         0.0788 
     98 H98        22.5663   26.3990    1.5463 H         1 UNK         0.0788 
     99 H99        25.2223   24.2512    2.5233 H         1 UNK         0.2993 
    100 H100       28.2865   24.4083    3.8157 H         1 UNK         0.0949 
    101 H101       27.4686   22.0645    3.8544 H         1 UNK         0.0767 
    102 H102       26.1633   23.1786    4.2012 H         1 UNK         0.0767 
    103 H103       26.2766   22.4201    2.6129 H         1 UNK         0.0767 
    104 H104       29.7162   23.6758    2.3066 H         1 UNK         0.3013 
    105 H105       27.5009   28.4386    1.9204 H         1 UNK         0.3121 
    106 H106       28.8695   29.2135    4.2259 H         1 UNK         0.0774 
    107 H107       26.5689   29.3229    5.2284 H         1 UNK         0.0815 
    108 H108       25.8632   29.2445    3.6198 H         1 UNK         0.0815 
    109 H109       26.7844   27.8795    4.2534 H         1 UNK         0.0815 
    110 H110       29.2205   31.0978    5.2448 H         1 UNK         0.2987 
    111 H111       29.5715   33.2021    5.7071 H         1 UNK         0.0949 
    112 H112       26.9849   33.9091    4.2253 H         1 UNK         0.0806 
    113 H113       27.1048   33.4544    5.9246 H         1 UNK         0.0806 
    114 H114       27.8541   34.9357    5.3520 H         1 UNK         0.0806 
    115 H115       28.8148   32.7379    2.2853 H         1 UNK         0.3010 
    116 H116       30.2058   34.9868    1.2222 H         1 UNK         0.0829 
    117 H117       28.5523   33.6888   -0.0935 H         1 UNK         0.0813 
    118 H118       30.0991   33.6981   -0.9251 H         1 UNK         0.0813 
    119 H119       29.5855   32.2619   -0.0502 H         1 UNK         0.0813 
    120 H120       31.2612   31.6078    1.7405 H         1 UNK         0.3038 
    121 H121       34.1037   32.5406    1.8770 H         1 UNK         0.0769 
    122 H122       34.8157   30.4042    0.8977 H         1 UNK         0.0811 
    123 H123       33.7253   31.1980   -0.2297 H         1 UNK         0.0811 
    124 H124       33.1574   29.8499    0.7574 H         1 UNK         0.0811 
    125 H125       31.5915   30.2615    2.9484 H         1 UNK         0.3204 
    126 H126       31.1203   29.2493    4.8277 H         1 UNK         0.0748 
    127 H127       31.7629   31.4087    6.0117 H         1 UNK         0.0771 
    128 H128       31.9551   29.9795    7.0072 H         1 UNK         0.0771 
    129 H129       33.3663   30.7371    6.2887 H         1 UNK         0.0771 
    130 H130       32.1925   27.8371    6.7122 H         1 UNK         0.2980 
    131 H131       33.4312   25.7098    5.2229 H         1 UNK         0.0545 
    132 H132       35.0355   28.2509    6.8190 H         1 UNK         0.3459 
    133 H133       36.5142   27.3807    7.1450 H         1 UNK         0.3459 
    134 H134       32.9653   24.3037    7.1543 H         1 UNK         0.0616 
    135 H135       32.7210   25.6882    8.1851 H         1 UNK         0.0616 
    136 H136       31.0523   22.9914    6.2837 H         1 UNK         0.0634 
    137 H137       29.5671   23.6302    5.6304 H         1 UNK         0.0634 
@<TRIPOS>BOND
     1    1    2 1    
     2    1   72 1    
     3    1   73 1    
     4    1   74 1    
     5    2    3 2    
     6    2    4 am   BACKBONE|DICT|INTERRES
     7    4    5 1    
     8    4   75 1    
     9    5    6 1    
    10    5   35 1    
    11    5   76 1    
    12    6    7 1    
    13    6   77 1    
    14    6   78 1    
    15    7    8 1    
    16    8    9 1    
    17    8   79 1    
    18    8   80 1    
    19    9   10 ar   
    20    9   14 ar   
    21   10   11 ar   
    22   10   81 1    
    23   11   12 ar   
    24   11   71 1    
    25   12   13 ar   
    26   12   82 1    
    27   13   14 ar   
    28   13   15 1    
    29   14   83 1    
    30   15   16 1    
    31   15   84 1    
    32   15   85 1    
    33   16   17 1    
    34   17   18 1    
    35   17   86 1    
    36   17   87 1    
    37   18   19 1    
    38   18   37 1    
    39   18   88 1    
    40   19   20 am   BACKBONE|DICT|INTERRES
    41   19   89 1    
    42   20   21 2    
    43   20   22 1    
    44   22   23 1    
    45   22   24 1    
    46   22   90 1    
    47   23   91 1    
    48   23   92 1    
    49   23   93 1    
    50   24   25 am   BACKBONE|DICT|INTERRES
    51   24   94 1    
    52   25   26 2    
    53   25   27 1    
    54   27   28 1    
    55   27   29 1    
    56   27   95 1    
    57   28   96 1    
    58   28   97 1    
    59   28   98 1    
    60   29   30 am   BACKBONE|DICT|INTERRES
    61   29   99 1    
    62   30   31 2    
    63   30   32 1    
    64   32   33 1    
    65   32   34 1    
    66   32  100 1    
    67   33  101 1    
    68   33  102 1    
    69   33  103 1    
    70   34   35 am   BACKBONE|DICT|INTERRES
    71   34  104 1    
    72   35   36 2    
    73   37   38 2    
    74   37   39 am   BACKBONE|DICT|INTERRES
    75   39   40 1    
    76   39  105 1    
    77   40   41 1    
    78   40   42 1    
    79   40  106 1    
    80   41  107 1    
    81   41  108 1    
    82   41  109 1    
    83   42   43 2    
    84   42   44 am   BACKBONE|DICT|INTERRES
    85   44   45 1    
    86   44  110 1    
    87   45   46 1    
    88   45   47 1    
    89   45  111 1    
    90   46  112 1    
    91   46  113 1    
    92   46  114 1    
    93   47   48 2    
    94   47   49 am   BACKBONE|DICT|INTERRES
    95   49   50 1    
    96   49  115 1    
    97   50   51 1    
    98   50   52 1    
    99   50  116 1    
   100   51  117 1    
   101   51  118 1    
   102   51  119 1    
   103   52   53 2    
   104   52   54 am   BACKBONE|DICT|INTERRES
   105   54   55 1    
   106   54  120 1    
   107   55   56 1    
   108   55   57 1    
   109   55  121 1    
   110   56  122 1    
   111   56  123 1    
   112   56  124 1    
   113   57   58 2    
   114   57   59 am   BACKBONE|DICT|INTERRES
   115   59   60 1    
   116   59  125 1    
   117   60   61 1    
   118   60   62 1    
   119   60  126 1    
   120   61  127 1    
   121   61  128 1    
   122   61  129 1    
   123   62   63 2    
   124   62   64 am   BACKBONE|DICT|INTERRES
   125   64   65 1    
   126   64  130 1    
   127   65   66 1    
   128   65   69 1    
   129   65  131 1    
   130   66   67 am   BACKBONE|DICT|INTERRES
   131   66   68 2    
   132   67  132 1    
   133   67  133 1    
   134   69   70 1    
   135   69  134 1    
   136   69  135 1    
   137   70   71 1    
   138   71  136 1    
   139   71  137 1    
@<TRIPOS>SUBSTRUCTURE
     1 UNK         1 GROUP             0       ****    0 ROOT    
