@<TRIPOS>MOLECULE
3R136
137   139    1
SMALL
USER_CHARGES


@<TRIPOS>ATOM
      1 CA         33.5221   27.7760   -2.8813 C.3       0 UNK        -0.1979 
      2 C          32.2113   28.0343   -2.1535 C.2       0 UNK         0.4864 
      3 O          31.5571   29.0415   -2.4177 O.2       0 UNK        -0.5359 
      4 N          31.8207   27.1220   -1.2525 N.am      1 UNK        -0.4318 
      5 CA         30.6217   27.2111   -0.4077 C.3       1 UNK         0.0824 
      6 C6         30.6858   26.1916    0.7595 C.3       12 UNK        -0.0944 
      7 S7         30.7303   24.4453    0.2225 S.3       12 UNK        -0.2672 
      8 C8         31.8400   23.7114    1.4680 C.3       12 UNK         0.0333 
      9 C9         31.2516   23.7617    2.8729 C.ar      12 UNK        -0.0807 
     10 C10        31.9401   24.4037    3.9079 C.ar      12 UNK        -0.0894 
     11 C11        31.4126   24.4286    5.2035 C.ar      12 UNK        -0.0804 
     12 C12        30.1785   23.8233    5.4568 C.ar      12 UNK        -0.0824 
     13 C13        29.4817   23.1784    4.4304 C.ar      12 UNK        -0.0762 
     14 C14        30.0284   23.1413    3.1448 C.ar      12 UNK        -0.0782 
     15 C15        28.1417   22.5132    4.7079 C.3       12 UNK         0.0230 
     16 S16        26.7631   23.4120    3.9292 S.3       12 UNK        -0.2608 
     17 C17        26.8221   25.0160    4.8017 C.3       12 UNK        -0.0989 
     18 CA         27.4460   26.1487    3.9363 C.3       5 UNK         0.0716 
     19 N          26.7859   26.3122    2.6324 N.am      5 UNK        -0.4135 
     20 C          25.5119   26.6750    2.4148 C.2       4 UNK         0.5031 
     21 O          24.7219   26.9966    3.3028 O.2       4 UNK        -0.5229 
     22 CA         25.0382   26.6970    0.9527 C.3       4 UNK         0.0329 
     23 CB         25.0832   28.1307    0.3992 C.3       4 UNK        -0.2001 
     24 N          25.8457   25.8240    0.0971 N.am      4 UNK        -0.4303 
     25 C          25.6451   24.5051   -0.0537 C.2       3 UNK         0.5044 
     26 O          24.7202   23.8991    0.4893 O.2       3 UNK        -0.5152 
     27 CA         26.6457   23.7183   -0.9325 C.3       3 UNK         0.0319 
     28 CB         25.9592   22.6134   -1.7632 C.3       3 UNK        -0.2001 
     29 N          27.4992   24.5633   -1.7786 N.am      3 UNK        -0.4354 
     30 C          27.1166   25.3937   -2.7631 C.2       2 UNK         0.4964 
     31 O          25.9649   25.4574   -3.1953 O.2       2 UNK        -0.5047 
     32 CA         28.1960   26.3431   -3.3307 C.3       2 UNK         0.0288 
     33 CB         27.5971   27.6878   -3.7964 C.3       2 UNK        -0.2113 
     34 N          29.3280   26.5887   -2.4218 N.am      2 UNK        -0.4145 
     35 C          29.2844   27.0797   -1.1704 C.2       1 UNK         0.5006 
     36 O          28.2361   27.3468   -0.5798 O.2       1 UNK        -0.5103 
     37 C          27.5793   27.4791    4.7165 C.2       5 UNK         0.5055 
     38 O          27.6614   27.4596    5.9461 O.2       5 UNK        -0.5220 
     39 N          27.6073   28.6107    3.9985 N.am      6 UNK        -0.4450 
     40 CA         27.7464   29.9533    4.5588 C.3       6 UNK         0.0367 
     41 CB         26.4269   30.4310    5.1977 C.3       6 UNK        -0.1929 
     42 C          28.2319   30.9223    3.4785 C.2       6 UNK         0.5070 
     43 O          29.2972   31.5180    3.6371 O.2       6 UNK        -0.5237 
     44 N          27.4534   31.0487    2.3926 N.am      7 UNK        -0.4739 
     45 CA         27.7148   31.9403    1.2568 C.3       7 UNK         0.0276 
     46 CB         26.5440   31.8529    0.2618 C.3       7 UNK        -0.1927 
     47 C          29.0559   31.6265    0.5702 C.2       7 UNK         0.5013 
     48 O          29.1518   30.6233   -0.1362 O.2       7 UNK        -0.5193 
     49 N          30.0656   32.4677    0.8427 N.am      8 UNK        -0.4253 
     50 CA         31.4690   32.3490    0.4202 C.3       8 UNK         0.0242 
     51 CB         31.5956   32.5120   -1.1096 C.3       8 UNK        -0.2000 
     52 C          32.1810   31.0793    0.9387 C.2       8 UNK         0.4948 
     53 O          33.2011   30.6820    0.3724 O.2       8 UNK        -0.5275 
     54 N          31.6535   30.4672    2.0080 N.am      9 UNK        -0.4246 
     55 CA         32.1940   29.2523    2.6078 C.3       9 UNK         0.0261 
     56 CB         31.0571   28.4935    3.3101 C.3       9 UNK        -0.1959 
     57 C          33.3156   29.6147    3.5894 C.2       9 UNK         0.5033 
     58 O          33.0624   30.3118    4.5749 O.2       9 UNK        -0.5390 
     59 N          34.5318   29.1228    3.3255 N.am      10 UNK        -0.4215 
     60 CA         35.7217   29.3288    4.1577 C.3       10 UNK         0.0240 
     61 CB         36.9751   29.2341    3.2663 C.3       10 UNK        -0.1982 
     62 C          35.7611   28.3494    5.3486 C.2       10 UNK         0.4970 
     63 O          36.7414   27.6212    5.5171 O.2       10 UNK        -0.4916 
     64 N          34.6776   28.3235    6.1317 N.am      11 UNK        -0.4279 
     65 CA         34.5061   27.4604    7.3075 C.3       11 UNK         0.1003 
     66 C          35.4097   27.8834    8.4977 C.2       11 UNK         0.5709 
     67 N          35.8052   26.9395    9.3413 N.am      11 UNK        -0.7358 
     68 O          35.7233   29.0581    8.6857 O.2       11 UNK        -0.4999 
     69 C69        33.0197   27.3671    7.7454 C.3       12 UNK        -0.0954 
     70 S70        31.8933   26.8718    6.3988 S.3       12 UNK        -0.2268 
     71 C71        32.1905   25.0816    6.3357 C.3       12 UNK         0.0203 
     72 H72        33.3531   27.7329   -3.9569 H         1 UNK         0.0888 
     73 H73        34.2255   28.5833   -2.6784 H         1 UNK         0.0888 
     74 H74        33.9839   26.8385   -2.5720 H         1 UNK         0.0888 
     75 H75        32.3895   26.3006   -1.1012 H         1 UNK         0.3017 
     76 H76        30.6143   28.2134    0.0269 H         1 UNK         0.0873 
     77 H77        31.5725   26.3927    1.3610 H         1 UNK         0.0745 
     78 H78        29.8381   26.3182    1.4347 H         1 UNK         0.0745 
     79 H79        32.0264   22.6702    1.2016 H         1 UNK         0.0705 
     80 H80        32.8066   24.2161    1.4277 H         1 UNK         0.0705 
     81 H81        32.8936   24.8752    3.7119 H         1 UNK         0.1334 
     82 H82        29.7656   23.8481    6.4561 H         1 UNK         0.1417 
     83 H83        29.4928   22.6401    2.3498 H         1 UNK         0.1562 
     84 H84        27.9589   22.4301    5.7805 H         1 UNK         0.0748 
     85 H85        28.1603   21.4930    4.3220 H         1 UNK         0.0748 
     86 H86        27.3776   24.8895    5.7326 H         1 UNK         0.0940 
     87 H87        25.8056   25.2790    5.0993 H         1 UNK         0.0940 
     88 H88        28.4720   25.8542    3.7098 H         1 UNK         0.0703 
     89 H89        27.3412   26.0680    1.8259 H         1 UNK         0.3081 
     90 H90        24.0002   26.3578    0.9328 H         1 UNK         0.0719 
     91 H91        24.4468   28.7960    0.9843 H         1 UNK         0.0809 
     92 H92        26.0931   28.5405    0.4221 H         1 UNK         0.0809 
     93 H93        24.7312   28.1688   -0.6318 H         1 UNK         0.0809 
     94 H94        26.6357   26.2612   -0.3703 H         1 UNK         0.2990 
     95 H95        27.3229   23.2259   -0.2326 H         1 UNK         0.0690 
     96 H96        26.6817   22.0627   -2.3656 H         1 UNK         0.0788 
     97 H97        25.2023   23.0204   -2.4341 H         1 UNK         0.0788 
     98 H98        25.4615   21.8896   -1.1166 H         1 UNK         0.0788 
     99 H99        28.4728   24.5927   -1.5073 H         1 UNK         0.2993 
    100 H100       28.6069   25.8395   -4.2070 H         1 UNK         0.0949 
    101 H101       27.1096   28.2165   -2.9761 H         1 UNK         0.0767 
    102 H102       28.3663   28.3432   -4.2052 H         1 UNK         0.0767 
    103 H103       26.8513   27.5393   -4.5784 H         1 UNK         0.0767 
    104 H104       30.2412   26.3653   -2.7918 H         1 UNK         0.3013 
    105 H105       27.5744   28.5463    2.9910 H         1 UNK         0.3121 
    106 H106       28.5148   29.9270    5.3352 H         1 UNK         0.0774 
    107 H107       25.5930   30.3838    4.4966 H         1 UNK         0.0815 
    108 H108       26.1640   29.8244    6.0643 H         1 UNK         0.0815 
    109 H109       26.5099   31.4626    5.5422 H         1 UNK         0.0815 
    110 H110       26.5889   30.5297    2.3570 H         1 UNK         0.2987 
    111 H111       27.7483   32.9625    1.6403 H         1 UNK         0.0949 
    112 H112       25.5983   32.1235    0.7317 H         1 UNK         0.0806 
    113 H113       26.6956   32.5357   -0.5752 H         1 UNK         0.0806 
    114 H114       26.4389   30.8512   -0.1557 H         1 UNK         0.0806 
    115 H115       29.8769   33.2274    1.4829 H         1 UNK         0.3010 
    116 H116       31.9929   33.1870    0.8822 H         1 UNK         0.0829 
    117 H117       31.1461   31.6732   -1.6422 H         1 UNK         0.0813 
    118 H118       31.1128   33.4264   -1.4540 H         1 UNK         0.0813 
    119 H119       32.6413   32.5645   -1.4148 H         1 UNK         0.0813 
    120 H120       30.8605   30.8928    2.4783 H         1 UNK         0.3038 
    121 H121       32.5896   28.6118    1.8166 H         1 UNK         0.0769 
    122 H122       30.1939   28.3783    2.6563 H         1 UNK         0.0811 
    123 H123       30.7217   29.0051    4.2133 H         1 UNK         0.0811 
    124 H124       31.3804   27.4944    3.6013 H         1 UNK         0.0811 
    125 H125       34.6553   28.5474    2.5045 H         1 UNK         0.3204 
    126 H126       35.6925   30.3373    4.5762 H         1 UNK         0.0748 
    127 H127       37.0804   28.2450    2.8187 H         1 UNK         0.0771 
    128 H128       36.9432   29.9662    2.4590 H         1 UNK         0.0771 
    129 H129       37.8806   29.4307    3.8420 H         1 UNK         0.0771 
    130 H130       33.9204   28.9645    5.9244 H         1 UNK         0.2980 
    131 H131       34.8263   26.4606    7.0093 H         1 UNK         0.0545 
    132 H132       35.5459   25.9748    9.2058 H         1 UNK         0.3459 
    133 H133       36.3804   27.1969   10.1282 H         1 UNK         0.3459 
    134 H134       32.6766   28.3326    8.1219 H         1 UNK         0.0616 
    135 H135       32.9036   26.6612    8.5699 H         1 UNK         0.0616 
    136 H136       31.9162   24.6367    7.2935 H         1 UNK         0.0634 
    137 H137       33.2557   24.8915    6.2000 H         1 UNK         0.0634 
@<TRIPOS>BOND
     1    1    2 1    
     2    1   72 1    
     3    1   73 1    
     4    1   74 1    
     5    2    3 2    
     6    2    4 am   BACKBONE|DICT|INTERRES
     7    4    5 1    
     8    4   75 1    
     9    5    6 1    
    10    5   35 1    
    11    5   76 1    
    12    6    7 1    
    13    6   77 1    
    14    6   78 1    
    15    7    8 1    
    16    8    9 1    
    17    8   79 1    
    18    8   80 1    
    19    9   10 ar   
    20    9   14 ar   
    21   10   11 ar   
    22   10   81 1    
    23   11   12 ar   
    24   11   71 1    
    25   12   13 ar   
    26   12   82 1    
    27   13   14 ar   
    28   13   15 1    
    29   14   83 1    
    30   15   16 1    
    31   15   84 1    
    32   15   85 1    
    33   16   17 1    
    34   17   18 1    
    35   17   86 1    
    36   17   87 1    
    37   18   19 1    
    38   18   37 1    
    39   18   88 1    
    40   19   20 am   BACKBONE|DICT|INTERRES
    41   19   89 1    
    42   20   21 2    
    43   20   22 1    
    44   22   23 1    
    45   22   24 1    
    46   22   90 1    
    47   23   91 1    
    48   23   92 1    
    49   23   93 1    
    50   24   25 am   BACKBONE|DICT|INTERRES
    51   24   94 1    
    52   25   26 2    
    53   25   27 1    
    54   27   28 1    
    55   27   29 1    
    56   27   95 1    
    57   28   96 1    
    58   28   97 1    
    59   28   98 1    
    60   29   30 am   BACKBONE|DICT|INTERRES
    61   29   99 1    
    62   30   31 2    
    63   30   32 1    
    64   32   33 1    
    65   32   34 1    
    66   32  100 1    
    67   33  101 1    
    68   33  102 1    
    69   33  103 1    
    70   34   35 am   BACKBONE|DICT|INTERRES
    71   34  104 1    
    72   35   36 2    
    73   37   38 2    
    74   37   39 am   BACKBONE|DICT|INTERRES
    75   39   40 1    
    76   39  105 1    
    77   40   41 1    
    78   40   42 1    
    79   40  106 1    
    80   41  107 1    
    81   41  108 1    
    82   41  109 1    
    83   42   43 2    
    84   42   44 am   BACKBONE|DICT|INTERRES
    85   44   45 1    
    86   44  110 1    
    87   45   46 1    
    88   45   47 1    
    89   45  111 1    
    90   46  112 1    
    91   46  113 1    
    92   46  114 1    
    93   47   48 2    
    94   47   49 am   BACKBONE|DICT|INTERRES
    95   49   50 1    
    96   49  115 1    
    97   50   51 1    
    98   50   52 1    
    99   50  116 1    
   100   51  117 1    
   101   51  118 1    
   102   51  119 1    
   103   52   53 2    
   104   52   54 am   BACKBONE|DICT|INTERRES
   105   54   55 1    
   106   54  120 1    
   107   55   56 1    
   108   55   57 1    
   109   55  121 1    
   110   56  122 1    
   111   56  123 1    
   112   56  124 1    
   113   57   58 2    
   114   57   59 am   BACKBONE|DICT|INTERRES
   115   59   60 1    
   116   59  125 1    
   117   60   61 1    
   118   60   62 1    
   119   60  126 1    
   120   61  127 1    
   121   61  128 1    
   122   61  129 1    
   123   62   63 2    
   124   62   64 am   BACKBONE|DICT|INTERRES
   125   64   65 1    
   126   64  130 1    
   127   65   66 1    
   128   65   69 1    
   129   65  131 1    
   130   66   67 am   BACKBONE|DICT|INTERRES
   131   66   68 2    
   132   67  132 1    
   133   67  133 1    
   134   69   70 1    
   135   69  134 1    
   136   69  135 1    
   137   70   71 1    
   138   71  136 1    
   139   71  137 1    
@<TRIPOS>SUBSTRUCTURE
     1 UNK         1 GROUP             0       ****    0 ROOT    
