@<TRIPOS>MOLECULE
3R136
137   139    1
SMALL
USER_CHARGES


@<TRIPOS>ATOM
      1 CA         28.3916   18.1980   -2.1237 C.3       0 UNK        -0.1979 
      2 C          29.1599   19.4521   -1.7330 C.2       0 UNK         0.4864 
      3 O          30.2275   19.7140   -2.2901 O.2       0 UNK        -0.5359 
      4 N          28.6308   20.2223   -0.7740 N.am      1 UNK        -0.4318 
      5 CA         29.2051   21.4864   -0.3019 C.3       1 UNK         0.0824 
      6 C6         28.5746   21.9428    1.0376 C.3       12 UNK        -0.0944 
      7 S7         28.7359   20.7174    2.3809 S.3       12 UNK        -0.2672 
      8 C8         30.4548   20.9627    2.9353 C.3       12 UNK         0.0333 
      9 C9         30.6953   22.3504    3.5139 C.ar      12 UNK        -0.0807 
     10 C10        31.3412   23.3272    2.7500 C.ar      12 UNK        -0.0894 
     11 C11        31.5782   24.5973    3.2805 C.ar      12 UNK        -0.0804 
     12 C12        31.1872   24.8833    4.5910 C.ar      12 UNK        -0.0824 
     13 C13        30.5246   23.9229    5.3585 C.ar      12 UNK        -0.0762 
     14 C14        30.2857   22.6551    4.8163 C.ar      12 UNK        -0.0782 
     15 C15        30.0644   24.2503    6.7707 C.3       12 UNK         0.0230 
     16 S16        28.2917   24.6614    6.8044 S.3       12 UNK        -0.2608 
     17 C17        28.2807   26.4875    6.6920 C.3       12 UNK        -0.0989 
     18 CA         28.3352   27.0642    5.2469 C.3       5 UNK         0.0716 
     19 N          27.4243   26.3970    4.3080 N.am      5 UNK        -0.4135 
     20 C          26.0846   26.4420    4.2937 C.2       4 UNK         0.5031 
     21 O          25.4052   27.0359    5.1333 O.2       4 UNK        -0.5229 
     22 CA         25.3932   25.7240    3.1136 C.3       4 UNK         0.0329 
     23 CB         23.8577   25.8380    3.1672 C.3       4 UNK        -0.2001 
     24 N          25.8578   26.2128    1.8085 N.am      4 UNK        -0.4303 
     25 C          27.0374   25.9090    1.2551 C.2       3 UNK         0.5044 
     26 O          27.8720   25.1815    1.8005 O.2       3 UNK        -0.5152 
     27 CA         27.3568   26.5369   -0.1059 C.3       3 UNK         0.0319 
     28 CB         27.7134   28.0287    0.0306 C.3       3 UNK        -0.2001 
     29 N          28.4855   25.7986   -0.6556 N.am      3 UNK        -0.4354 
     30 C          28.8420   25.7019   -1.9388 C.2       2 UNK         0.4964 
     31 O          28.2992   26.3192   -2.8558 O.2       2 UNK        -0.5047 
     32 CA         29.9911   24.7250   -2.2522 C.3       2 UNK         0.0288 
     33 CB         31.3472   25.4428   -2.1505 C.3       2 UNK        -0.2113 
     34 N          30.0035   23.5441   -1.3787 N.am      2 UNK        -0.4145 
     35 C          29.0525   22.5974   -1.3624 C.2       1 UNK         0.5006 
     36 O          28.0711   22.6001   -2.1113 O.2       1 UNK        -0.5103 
     37 C          28.1316   28.5975    5.2106 C.2       5 UNK         0.5055 
     38 O          27.9800   29.2303    6.2581 O.2       5 UNK        -0.5220 
     39 N          28.0599   29.1552    3.9959 N.am      6 UNK        -0.4450 
     40 CA         27.6062   30.5153    3.7172 C.3       6 UNK         0.0367 
     41 CB         26.0901   30.4792    3.4387 C.3       6 UNK        -0.1929 
     42 C          28.3894   31.1030    2.5365 C.2       6 UNK         0.5070 
     43 O          29.2635   30.4318    1.9871 O.2       6 UNK        -0.5237 
     44 N          28.0606   32.3521    2.1821 N.am      7 UNK        -0.4739 
     45 CA         28.7253   33.1925    1.1784 C.3       7 UNK         0.0276 
     46 CB         28.7120   32.5299   -0.2202 C.3       7 UNK        -0.1927 
     47 C          30.1230   33.6461    1.6473 C.2       7 UNK         0.5013 
     48 O          30.3675   33.7125    2.8567 O.2       7 UNK        -0.5193 
     49 N          30.9938   34.0016    0.6908 N.am      8 UNK        -0.4253 
     50 CA         32.3399   34.5434    0.9025 C.3       8 UNK         0.0242 
     51 CB         33.0235   34.7541   -0.4588 C.3       8 UNK        -0.2000 
     52 C          33.1966   33.6467    1.8102 C.2       8 UNK         0.4948 
     53 O          33.4523   32.4945    1.4544 O.2       8 UNK        -0.5275 
     54 N          33.5683   34.1832    2.9824 N.am      9 UNK        -0.4246 
     55 CA         34.3235   33.5293    4.0606 C.3       9 UNK         0.0261 
     56 CB         35.7885   33.3079    3.6260 C.3       9 UNK        -0.1959 
     57 C          33.6683   32.2347    4.5903 C.2       9 UNK         0.5033 
     58 O          34.3844   31.3394    5.0439 O.2       9 UNK        -0.5390 
     59 N          32.3311   32.1336    4.4867 N.am      10 UNK        -0.4215 
     60 CA         31.5180   30.9428    4.7753 C.3       10 UNK         0.0240 
     61 CB         31.4552   30.6805    6.2951 C.3       10 UNK        -0.1982 
     62 C          31.9684   29.7063    3.9657 C.2       10 UNK         0.4970 
     63 O          31.9833   28.5999    4.5069 O.2       10 UNK        -0.4916 
     64 N          32.3843   29.9532    2.7132 N.am      11 UNK        -0.4279 
     65 CA         33.0700   29.0477    1.7782 C.3       11 UNK         0.1003 
     66 C          34.4119   28.4284    2.2777 C.2       11 UNK         0.5709 
     67 N          35.0213   28.9212    3.3506 N.am      11 UNK        -0.7358 
     68 O          34.9444   27.5132    1.6543 O.2       11 UNK        -0.4999 
     69 C69        32.1341   28.0783    0.9870 C.3       12 UNK        -0.0954 
     70 S70        31.0691   26.9461    1.9409 S.3       12 UNK        -0.2268 
     71 C71        32.2573   25.6676    2.4465 C.3       12 UNK         0.0203 
     72 H72        28.1196   18.2384   -3.1780 H         1 UNK         0.0888 
     73 H73        29.0090   17.3144   -1.9638 H         1 UNK         0.0888 
     74 H74        27.4773   18.0822   -1.5418 H         1 UNK         0.0888 
     75 H75        27.7486   19.9641   -0.3563 H         1 UNK         0.3017 
     76 H76        30.2728   21.3226   -0.1419 H         1 UNK         0.0873 
     77 H77        27.5102   22.1477    0.9055 H         1 UNK         0.0745 
     78 H78        29.0116   22.8836    1.3704 H         1 UNK         0.0745 
     79 H79        31.1341   20.7679    2.1042 H         1 UNK         0.0705 
     80 H80        30.6864   20.2125    3.6927 H         1 UNK         0.0705 
     81 H81        31.6560   23.1002    1.7413 H         1 UNK         0.1334 
     82 H82        31.3854   25.8646    5.0012 H         1 UNK         0.1417 
     83 H83        29.7738   21.9065    5.4060 H         1 UNK         0.1562 
     84 H84        30.6531   25.0643    7.1962 H         1 UNK         0.0748 
     85 H85        30.2348   23.3861    7.4145 H         1 UNK         0.0748 
     86 H86        29.1006   26.8890    7.2900 H         1 UNK         0.0940 
     87 H87        27.3659   26.8192    7.1874 H         1 UNK         0.0940 
     88 H88        29.3378   26.8966    4.8572 H         1 UNK         0.0703 
     89 H89        27.8683   25.8778    3.5537 H         1 UNK         0.3081 
     90 H90        25.6466   24.6646    3.1969 H         1 UNK         0.0719 
     91 H91        23.5264   26.8743    3.0897 H         1 UNK         0.0809 
     92 H92        23.3888   25.2733    2.3612 H         1 UNK         0.0809 
     93 H93        23.4688   25.4405    4.1058 H         1 UNK         0.0809 
     94 H94        25.2364   26.8392    1.3169 H         1 UNK         0.2990 
     95 H95        26.4909   26.4149   -0.7597 H         1 UNK         0.0690 
     96 H96        27.9323   28.4757   -0.9390 H         1 UNK         0.0788 
     97 H97        28.5884   28.1737    0.6645 H         1 UNK         0.0788 
     98 H98        26.8930   28.5975    0.4689 H         1 UNK         0.0788 
     99 H99        28.9672   25.2417    0.0407 H         1 UNK         0.2993 
    100 H100       29.8580   24.3817   -3.2806 H         1 UNK         0.0949 
    101 H101       32.1659   24.7921   -2.4586 H         1 UNK         0.0767 
    102 H102       31.3731   26.3219   -2.7960 H         1 UNK         0.0767 
    103 H103       31.5491   25.7798   -1.1331 H         1 UNK         0.0767 
    104 H104       30.7822   23.4672   -0.7415 H         1 UNK         0.3013 
    105 H105       28.3167   28.6155    3.1800 H         1 UNK         0.3121 
    106 H106       27.8004   31.1543    4.5813 H         1 UNK         0.0774 
    107 H107       25.6825   31.4800    3.2943 H         1 UNK         0.0815 
    108 H108       25.8602   29.8987    2.5445 H         1 UNK         0.0815 
    109 H109       25.5463   30.0322    4.2715 H         1 UNK         0.0815 
    110 H110       27.3499   32.8227    2.7249 H         1 UNK         0.2987 
    111 H111       28.1266   34.1023    1.1128 H         1 UNK         0.0949 
    112 H112       29.4273   31.7094   -0.2924 H         1 UNK         0.0806 
    113 H113       27.7262   32.1292   -0.4565 H         1 UNK         0.0806 
    114 H114       28.9550   33.2479   -1.0039 H         1 UNK         0.0806 
    115 H115       30.7072   33.8913   -0.2706 H         1 UNK         0.3010 
    116 H116       32.2243   35.5201    1.3768 H         1 UNK         0.0829 
    117 H117       32.4643   35.4516   -1.0828 H         1 UNK         0.0813 
    118 H118       34.0255   35.1665   -0.3323 H         1 UNK         0.0813 
    119 H119       33.1251   33.8172   -1.0085 H         1 UNK         0.0813 
    120 H120       33.2684   35.1279    3.1827 H         1 UNK         0.3038 
    121 H121       34.3282   34.2268    4.8994 H         1 UNK         0.0769 
    122 H122       36.3971   32.9540    4.4591 H         1 UNK         0.0811 
    123 H123       36.2412   34.2324    3.2677 H         1 UNK         0.0811 
    124 H124       35.8646   32.5661    2.8301 H         1 UNK         0.0811 
    125 H125       31.8244   32.9019    4.0544 H         1 UNK         0.3204 
    126 H126       30.5079   31.1765    4.4435 H         1 UNK         0.0748 
    127 H127       30.7614   29.8708    6.5240 H         1 UNK         0.0771 
    128 H128       32.4283   30.3977    6.6977 H         1 UNK         0.0771 
    129 H129       31.1105   31.5620    6.8355 H         1 UNK         0.0771 
    130 H130       32.3700   30.9160    2.3993 H         1 UNK         0.2980 
    131 H131       33.4320   29.7407    1.0182 H         1 UNK         0.0545 
    132 H132       34.6243   29.6922    3.8765 H         1 UNK         0.3459 
    133 H133       35.8953   28.5163    3.6438 H         1 UNK         0.3459 
    134 H134       31.4560   28.6816    0.3817 H         1 UNK         0.0616 
    135 H135       32.7062   27.4929    0.2658 H         1 UNK         0.0616 
    136 H136       33.0474   26.1176    3.0461 H         1 UNK         0.0634 
    137 H137       32.7320   25.2387    1.5628 H         1 UNK         0.0634 
@<TRIPOS>BOND
     1    1    2 1    
     2    1   72 1    
     3    1   73 1    
     4    1   74 1    
     5    2    3 2    
     6    2    4 am   BACKBONE|DICT|INTERRES
     7    4    5 1    
     8    4   75 1    
     9    5    6 1    
    10    5   35 1    
    11    5   76 1    
    12    6    7 1    
    13    6   77 1    
    14    6   78 1    
    15    7    8 1    
    16    8    9 1    
    17    8   79 1    
    18    8   80 1    
    19    9   10 ar   
    20    9   14 ar   
    21   10   11 ar   
    22   10   81 1    
    23   11   12 ar   
    24   11   71 1    
    25   12   13 ar   
    26   12   82 1    
    27   13   14 ar   
    28   13   15 1    
    29   14   83 1    
    30   15   16 1    
    31   15   84 1    
    32   15   85 1    
    33   16   17 1    
    34   17   18 1    
    35   17   86 1    
    36   17   87 1    
    37   18   19 1    
    38   18   37 1    
    39   18   88 1    
    40   19   20 am   BACKBONE|DICT|INTERRES
    41   19   89 1    
    42   20   21 2    
    43   20   22 1    
    44   22   23 1    
    45   22   24 1    
    46   22   90 1    
    47   23   91 1    
    48   23   92 1    
    49   23   93 1    
    50   24   25 am   BACKBONE|DICT|INTERRES
    51   24   94 1    
    52   25   26 2    
    53   25   27 1    
    54   27   28 1    
    55   27   29 1    
    56   27   95 1    
    57   28   96 1    
    58   28   97 1    
    59   28   98 1    
    60   29   30 am   BACKBONE|DICT|INTERRES
    61   29   99 1    
    62   30   31 2    
    63   30   32 1    
    64   32   33 1    
    65   32   34 1    
    66   32  100 1    
    67   33  101 1    
    68   33  102 1    
    69   33  103 1    
    70   34   35 am   BACKBONE|DICT|INTERRES
    71   34  104 1    
    72   35   36 2    
    73   37   38 2    
    74   37   39 am   BACKBONE|DICT|INTERRES
    75   39   40 1    
    76   39  105 1    
    77   40   41 1    
    78   40   42 1    
    79   40  106 1    
    80   41  107 1    
    81   41  108 1    
    82   41  109 1    
    83   42   43 2    
    84   42   44 am   BACKBONE|DICT|INTERRES
    85   44   45 1    
    86   44  110 1    
    87   45   46 1    
    88   45   47 1    
    89   45  111 1    
    90   46  112 1    
    91   46  113 1    
    92   46  114 1    
    93   47   48 2    
    94   47   49 am   BACKBONE|DICT|INTERRES
    95   49   50 1    
    96   49  115 1    
    97   50   51 1    
    98   50   52 1    
    99   50  116 1    
   100   51  117 1    
   101   51  118 1    
   102   51  119 1    
   103   52   53 2    
   104   52   54 am   BACKBONE|DICT|INTERRES
   105   54   55 1    
   106   54  120 1    
   107   55   56 1    
   108   55   57 1    
   109   55  121 1    
   110   56  122 1    
   111   56  123 1    
   112   56  124 1    
   113   57   58 2    
   114   57   59 am   BACKBONE|DICT|INTERRES
   115   59   60 1    
   116   59  125 1    
   117   60   61 1    
   118   60   62 1    
   119   60  126 1    
   120   61  127 1    
   121   61  128 1    
   122   61  129 1    
   123   62   63 2    
   124   62   64 am   BACKBONE|DICT|INTERRES
   125   64   65 1    
   126   64  130 1    
   127   65   66 1    
   128   65   69 1    
   129   65  131 1    
   130   66   67 am   BACKBONE|DICT|INTERRES
   131   66   68 2    
   132   67  132 1    
   133   67  133 1    
   134   69   70 1    
   135   69  134 1    
   136   69  135 1    
   137   70   71 1    
   138   71  136 1    
   139   71  137 1    
@<TRIPOS>SUBSTRUCTURE
     1 UNK         1 GROUP             0       ****    0 ROOT    
