@<TRIPOS>MOLECULE
3R136
137   139    1
SMALL
USER_CHARGES


@<TRIPOS>ATOM
      1 CA         32.9471   22.6088   -1.7973 C.3       0 UNK        -0.1979 
      2 C          32.4618   21.7653   -0.6206 C.2       0 UNK         0.4864 
      3 O          33.0071   20.6874   -0.3868 O.2       0 UNK        -0.5359 
      4 N          31.4622   22.2087    0.1542 N.am      1 UNK        -0.4318 
      5 CA         30.6562   23.4192   -0.0386 C.3       1 UNK         0.0824 
      6 C6         29.9863   23.8666    1.2884 C.3       12 UNK        -0.0944 
      7 S7         28.8881   22.6145    2.0406 S.3       12 UNK        -0.2672 
      8 C8         29.4284   22.6402    3.7779 C.3       12 UNK         0.0333 
      9 C9         29.0666   23.9445    4.4770 C.ar      12 UNK        -0.0807 
     10 C10        30.0692   24.7666    5.0024 C.ar      12 UNK        -0.0894 
     11 C11        29.7370   25.9319    5.7000 C.ar      12 UNK        -0.0804 
     12 C12        28.3930   26.2908    5.8396 C.ar      12 UNK        -0.0824 
     13 C13        27.3805   25.4822    5.3127 C.ar      12 UNK        -0.0762 
     14 C14        27.7248   24.3049    4.6413 C.ar      12 UNK        -0.0782 
     15 C15        25.9171   25.8653    5.5123 C.3       12 UNK         0.0230 
     16 S16        24.9787   26.0022    3.9533 S.3       12 UNK        -0.2608 
     17 C17        25.9428   27.2459    3.0313 C.3       12 UNK        -0.0989 
     18 CA         26.3798   26.6972    1.6436 C.3       5 UNK         0.0716 
     19 N          25.2840   26.4641    0.6917 N.am      5 UNK        -0.4135 
     20 C          24.3117   27.3078    0.3073 C.2       4 UNK         0.5031 
     21 O          24.1177   28.4142    0.8135 O.2       4 UNK        -0.5229 
     22 CA         23.3958   26.8691   -0.8574 C.3       4 UNK         0.0329 
     23 CB         23.2624   27.9868   -1.9085 C.3       4 UNK        -0.2001 
     24 N          23.8608   25.6562   -1.5336 N.am      4 UNK        -0.4303 
     25 C          23.5261   24.4018   -1.2040 C.2       3 UNK         0.5044 
     26 O          22.7160   24.1166   -0.3221 O.2       3 UNK        -0.5152 
     27 CA         24.2414   23.2697   -1.9701 C.3       3 UNK         0.0319 
     28 CB         23.3570   22.7576   -3.1185 C.3       3 UNK        -0.2001 
     29 N          25.5626   23.6363   -2.5031 N.am      3 UNK        -0.4354 
     30 C          26.6048   24.0298   -1.7577 C.2       2 UNK         0.4964 
     31 O          26.5522   24.1614   -0.5331 O.2       2 UNK        -0.5047 
     32 CA         27.8904   24.4102   -2.5130 C.3       2 UNK         0.0288 
     33 CB         27.7642   25.8279   -3.0969 C.3       2 UNK        -0.2113 
     34 N          29.0513   24.3724   -1.6218 N.am      2 UNK        -0.4145 
     35 C          29.6157   23.2455   -1.1680 C.2       1 UNK         0.5006 
     36 O          29.3309   22.1209   -1.5910 O.2       1 UNK        -0.5103 
     37 C          27.5042   27.5408    1.0120 C.2       5 UNK         0.5055 
     38 O          27.2963   28.2428    0.0186 O.2       5 UNK        -0.5220 
     39 N          28.7017   27.4296    1.5987 N.am      6 UNK        -0.4450 
     40 CA         29.8774   28.2167    1.2319 C.3       6 UNK         0.0367 
     41 CB         31.1414   27.4439    1.6453 C.3       6 UNK        -0.1929 
     42 C          29.8331   29.6122    1.8795 C.2       6 UNK         0.5070 
     43 O          29.0817   29.8346    2.8326 O.2       6 UNK        -0.5237 
     44 N          30.6447   30.5306    1.3422 N.am      7 UNK        -0.4739 
     45 CA         30.8146   31.8899    1.8593 C.3       7 UNK         0.0276 
     46 CB         31.5485   32.7328    0.8030 C.3       7 UNK        -0.1927 
     47 C          31.6012   31.9005    3.1793 C.2       7 UNK         0.5013 
     48 O          32.4439   31.0263    3.3958 O.2       7 UNK        -0.5193 
     49 N          31.3760   32.9344    4.0024 N.am      8 UNK        -0.4253 
     50 CA         32.0370   33.1432    5.2984 C.3       8 UNK         0.0242 
     51 CB         31.5039   34.4315    5.9450 C.3       8 UNK        -0.2000 
     52 C          33.5752   33.1744    5.2281 C.2       8 UNK         0.4948 
     53 O          34.2313   32.6966    6.1529 O.2       8 UNK        -0.5275 
     54 N          34.1188   33.6874    4.1153 N.am      9 UNK        -0.4246 
     55 CA         35.5517   33.6960    3.8108 C.3       9 UNK         0.0261 
     56 CB         35.8017   34.6020    2.5940 C.3       9 UNK        -0.1959 
     57 C          36.1460   32.2947    3.5672 C.2       9 UNK         0.5033 
     58 O          37.3459   32.1151    3.7808 O.2       9 UNK        -0.5390 
     59 N          35.3174   31.3374    3.1263 N.am      10 UNK        -0.4215 
     60 CA         35.6969   29.9376    2.9353 C.3       10 UNK         0.0240 
     61 CB         34.9355   29.3531    1.7345 C.3       10 UNK        -0.1982 
     62 C          35.4352   29.1182    4.2077 C.2       10 UNK         0.4970 
     63 O          36.2752   28.2927    4.5683 O.2       10 UNK        -0.4916 
     64 N          34.2933   29.3623    4.8670 N.am      11 UNK        -0.4279 
     65 CA         33.9266   28.7460    6.1518 C.3       11 UNK         0.1003 
     66 C          34.8696   29.1307    7.3264 C.2       11 UNK         0.5709 
     67 N          35.3399   30.3687    7.4141 N.am      11 UNK        -0.7358 
     68 O          35.1810   28.2902    8.1668 O.2       11 UNK        -0.4999 
     69 C69        32.4500   29.0252    6.5293 C.3       12 UNK        -0.0954 
     70 S70        31.2664   28.2333    5.3912 S.3       12 UNK        -0.2268 
     71 C71        30.8202   26.7669    6.3673 C.3       12 UNK         0.0203 
     72 H72        33.7895   22.1245   -2.2909 H         1 UNK         0.0888 
     73 H73        32.1601   22.7357   -2.5396 H         1 UNK         0.0888 
     74 H74        33.2827   23.5900   -1.4634 H         1 UNK         0.0888 
     75 H75        31.1383   21.6136    0.9030 H         1 UNK         0.3017 
     76 H76        31.3251   24.2257   -0.3439 H         1 UNK         0.0873 
     77 H77        29.4006   24.7740    1.1409 H         1 UNK         0.0745 
     78 H78        30.7634   24.1373    2.0047 H         1 UNK         0.0745 
     79 H79        28.9498   21.8139    4.3052 H         1 UNK         0.0705 
     80 H80        30.5021   22.4510    3.8241 H         1 UNK         0.0705 
     81 H81        31.1078   24.4833    4.8983 H         1 UNK         0.1334 
     82 H82        28.1382   27.1915    6.3818 H         1 UNK         0.1417 
     83 H83        26.9463   23.6667    4.2451 H         1 UNK         0.1562 
     84 H84        25.8338   26.8114    6.0496 H         1 UNK         0.0748 
     85 H85        25.4402   25.1138    6.1429 H         1 UNK         0.0748 
     86 H86        26.8117   27.5315    3.6259 H         1 UNK         0.0940 
     87 H87        25.3569   28.1604    2.9447 H         1 UNK         0.0940 
     88 H88        26.8175   25.7098    1.8054 H         1 UNK         0.0703 
     89 H89        25.3793   25.5915    0.1834 H         1 UNK         0.3081 
     90 H90        22.4062   26.6880   -0.4326 H         1 UNK         0.0719 
     91 H91        24.2294   28.2540   -2.3367 H         1 UNK         0.0809 
     92 H92        22.6031   27.6889   -2.7241 H         1 UNK         0.0809 
     93 H93        22.8392   28.8916   -1.4703 H         1 UNK         0.0809 
     94 H94        24.5360   25.7855   -2.2730 H         1 UNK         0.2990 
     95 H95        24.3912   22.4503   -1.2638 H         1 UNK         0.0690 
     96 H96        23.8018   21.8903   -3.6068 H         1 UNK         0.0788 
     97 H97        23.1942   23.5250   -3.8764 H         1 UNK         0.0788 
     98 H98        22.3770   22.4510   -2.7497 H         1 UNK         0.0788 
     99 H99        25.6774   23.5701   -3.5049 H         1 UNK         0.2993 
    100 H100       28.0454   23.6980   -3.3267 H         1 UNK         0.0949 
    101 H101       28.6692   26.1181   -3.6312 H         1 UNK         0.0767 
    102 H102       26.9393   25.8906   -3.8078 H         1 UNK         0.0767 
    103 H103       27.5818   26.5716   -2.3193 H         1 UNK         0.0767 
    104 H104       29.3210   25.2534   -1.2108 H         1 UNK         0.3013 
    105 H105       28.7803   26.8853    2.4461 H         1 UNK         0.3121 
    106 H106       29.8959   28.3495    0.1477 H         1 UNK         0.0774 
    107 H107       31.1279   27.1768    2.7014 H         1 UNK         0.0815 
    108 H108       32.0412   28.0320    1.4699 H         1 UNK         0.0815 
    109 H109       31.2484   26.5255    1.0703 H         1 UNK         0.0815 
    110 H110       31.2523   30.2595    0.5830 H         1 UNK         0.2987 
    111 H111       29.8256   32.3192    2.0352 H         1 UNK         0.0949 
    112 H112       32.5482   32.3458    0.5996 H         1 UNK         0.0806 
    113 H113       30.9996   32.7543   -0.1387 H         1 UNK         0.0806 
    114 H114       31.6603   33.7670    1.1315 H         1 UNK         0.0806 
    115 H115       30.6817   33.6192    3.7388 H         1 UNK         0.3010 
    116 H116       31.7599   32.3046    5.9389 H         1 UNK         0.0829 
    117 H117       30.4266   34.3803    6.1043 H         1 UNK         0.0813 
    118 H118       31.9647   34.5979    6.9200 H         1 UNK         0.0813 
    119 H119       31.7128   35.3092    5.3321 H         1 UNK         0.0813 
    120 H120       33.5003   34.0655    3.4128 H         1 UNK         0.3038 
    121 H121       36.0726   34.1250    4.6696 H         1 UNK         0.0769 
    122 H122       35.2886   34.2352    1.7040 H         1 UNK         0.0811 
    123 H123       36.8658   34.6532    2.3582 H         1 UNK         0.0811 
    124 H124       35.4650   35.6218    2.7813 H         1 UNK         0.0811 
    125 H125       34.3273   31.5433    3.0437 H         1 UNK         0.3204 
    126 H126       36.7643   29.8740    2.7122 H         1 UNK         0.0748 
    127 H127       33.8569   29.4124    1.8721 H         1 UNK         0.0771 
    128 H128       35.1833   29.8833    0.8148 H         1 UNK         0.0771 
    129 H129       35.1897   28.3031    1.5832 H         1 UNK         0.0771 
    130 H130       33.6188   30.0089    4.4678 H         1 UNK         0.2980 
    131 H131       34.0304   27.6668    6.0225 H         1 UNK         0.0545 
    132 H132       35.0172   31.0995    6.7855 H         1 UNK         0.3459 
    133 H133       35.9547   30.6053    8.1755 H         1 UNK         0.3459 
    134 H134       32.2369   28.6856    7.5447 H         1 UNK         0.0616 
    135 H135       32.2582   30.0983    6.5297 H         1 UNK         0.0616 
    136 H136       30.4731   27.0816    7.3526 H         1 UNK         0.0634 
    137 H137       31.7153   26.1658    6.5348 H         1 UNK         0.0634 
@<TRIPOS>BOND
     1    1    2 1    
     2    1   72 1    
     3    1   73 1    
     4    1   74 1    
     5    2    3 2    
     6    2    4 am   BACKBONE|DICT|INTERRES
     7    4    5 1    
     8    4   75 1    
     9    5    6 1    
    10    5   35 1    
    11    5   76 1    
    12    6    7 1    
    13    6   77 1    
    14    6   78 1    
    15    7    8 1    
    16    8    9 1    
    17    8   79 1    
    18    8   80 1    
    19    9   10 ar   
    20    9   14 ar   
    21   10   11 ar   
    22   10   81 1    
    23   11   12 ar   
    24   11   71 1    
    25   12   13 ar   
    26   12   82 1    
    27   13   14 ar   
    28   13   15 1    
    29   14   83 1    
    30   15   16 1    
    31   15   84 1    
    32   15   85 1    
    33   16   17 1    
    34   17   18 1    
    35   17   86 1    
    36   17   87 1    
    37   18   19 1    
    38   18   37 1    
    39   18   88 1    
    40   19   20 am   BACKBONE|DICT|INTERRES
    41   19   89 1    
    42   20   21 2    
    43   20   22 1    
    44   22   23 1    
    45   22   24 1    
    46   22   90 1    
    47   23   91 1    
    48   23   92 1    
    49   23   93 1    
    50   24   25 am   BACKBONE|DICT|INTERRES
    51   24   94 1    
    52   25   26 2    
    53   25   27 1    
    54   27   28 1    
    55   27   29 1    
    56   27   95 1    
    57   28   96 1    
    58   28   97 1    
    59   28   98 1    
    60   29   30 am   BACKBONE|DICT|INTERRES
    61   29   99 1    
    62   30   31 2    
    63   30   32 1    
    64   32   33 1    
    65   32   34 1    
    66   32  100 1    
    67   33  101 1    
    68   33  102 1    
    69   33  103 1    
    70   34   35 am   BACKBONE|DICT|INTERRES
    71   34  104 1    
    72   35   36 2    
    73   37   38 2    
    74   37   39 am   BACKBONE|DICT|INTERRES
    75   39   40 1    
    76   39  105 1    
    77   40   41 1    
    78   40   42 1    
    79   40  106 1    
    80   41  107 1    
    81   41  108 1    
    82   41  109 1    
    83   42   43 2    
    84   42   44 am   BACKBONE|DICT|INTERRES
    85   44   45 1    
    86   44  110 1    
    87   45   46 1    
    88   45   47 1    
    89   45  111 1    
    90   46  112 1    
    91   46  113 1    
    92   46  114 1    
    93   47   48 2    
    94   47   49 am   BACKBONE|DICT|INTERRES
    95   49   50 1    
    96   49  115 1    
    97   50   51 1    
    98   50   52 1    
    99   50  116 1    
   100   51  117 1    
   101   51  118 1    
   102   51  119 1    
   103   52   53 2    
   104   52   54 am   BACKBONE|DICT|INTERRES
   105   54   55 1    
   106   54  120 1    
   107   55   56 1    
   108   55   57 1    
   109   55  121 1    
   110   56  122 1    
   111   56  123 1    
   112   56  124 1    
   113   57   58 2    
   114   57   59 am   BACKBONE|DICT|INTERRES
   115   59   60 1    
   116   59  125 1    
   117   60   61 1    
   118   60   62 1    
   119   60  126 1    
   120   61  127 1    
   121   61  128 1    
   122   61  129 1    
   123   62   63 2    
   124   62   64 am   BACKBONE|DICT|INTERRES
   125   64   65 1    
   126   64  130 1    
   127   65   66 1    
   128   65   69 1    
   129   65  131 1    
   130   66   67 am   BACKBONE|DICT|INTERRES
   131   66   68 2    
   132   67  132 1    
   133   67  133 1    
   134   69   70 1    
   135   69  134 1    
   136   69  135 1    
   137   70   71 1    
   138   71  136 1    
   139   71  137 1    
@<TRIPOS>SUBSTRUCTURE
     1 UNK         1 GROUP             0       ****    0 ROOT    
