@<TRIPOS>MOLECULE
3R136
137   139    1
SMALL
USER_CHARGES


@<TRIPOS>ATOM
      1 CA         29.6352   22.9207   -1.2698 C.3       0 UNK        -0.1979 
      2 C          28.8300   23.7019   -0.2444 C.2       0 UNK         0.4864 
      3 O          28.3933   24.8168   -0.5338 O.2       0 UNK        -0.5359 
      4 N          28.6348   23.1387    0.9540 N.am      1 UNK        -0.4318 
      5 CA         27.8596   23.7340    2.0488 C.3       1 UNK         0.0824 
      6 C6         28.0414   22.9704    3.3874 C.3       12 UNK        -0.0944 
      7 S7         29.7848   22.5951    3.8076 S.3       12 UNK        -0.2672 
      8 C8         30.3691   24.1491    4.5609 C.3       12 UNK         0.0333 
      9 C9         31.4983   24.7843    3.7562 C.ar      12 UNK        -0.0807 
     10 C10        32.7751   24.9396    4.3048 C.ar      12 UNK        -0.0894 
     11 C11        33.7920   25.5649    3.5729 C.ar      12 UNK        -0.0804 
     12 C12        33.5211   26.0510    2.2877 C.ar      12 UNK        -0.0824 
     13 C13        32.2518   25.8893    1.7235 C.ar      12 UNK        -0.0762 
     14 C14        31.2598   25.2419    2.4599 C.ar      12 UNK        -0.0782 
     15 C15        31.9481   26.3853    0.3141 C.3       12 UNK         0.0230 
     16 S16        31.3440   28.1051    0.2979 S.3       12 UNK        -0.2608 
     17 C17        29.6693   27.9601    1.0129 C.3       12 UNK        -0.0989 
     18 CA         28.5521   28.4302    0.0492 C.3       5 UNK         0.0716 
     19 N          28.4103   27.5398   -1.0984 N.am      5 UNK        -0.4135 
     20 C          27.9703   27.9097   -2.3064 C.2       4 UNK         0.5031 
     21 O          27.7148   29.0741   -2.6170 O.2       4 UNK        -0.5229 
     22 CA         27.7359   26.7864   -3.3219 C.3       4 UNK         0.0329 
     23 CB         29.0655   26.1493   -3.7632 C.3       4 UNK        -0.2001 
     24 N          26.8648   25.7626   -2.7419 N.am      4 UNK        -0.4303 
     25 C          25.6786   25.3909   -3.2389 C.2       3 UNK         0.5044 
     26 O          25.1856   25.8531   -4.2689 O.2       3 UNK        -0.5152 
     27 CA         24.9071   24.3089   -2.4635 C.3       3 UNK         0.0319 
     28 CB         25.4424   22.9106   -2.8124 C.3       3 UNK        -0.2001 
     29 N          24.9358   24.4860   -1.0106 N.am      3 UNK        -0.4354 
     30 C          24.3666   25.4912   -0.3320 C.2       2 UNK         0.4964 
     31 O          23.7538   26.4149   -0.8671 O.2       2 UNK        -0.5047 
     32 CA         24.4954   25.4734    1.2036 C.3       2 UNK         0.0288 
     33 CB         23.3505   24.6751    1.8586 C.3       2 UNK        -0.2113 
     34 N          25.8188   25.0529    1.6862 N.am      2 UNK        -0.4145 
     35 C          26.3772   23.8342    1.6430 C.2       1 UNK         0.5006 
     36 O          25.7975   22.8241    1.2369 O.2       1 UNK        -0.5103 
     37 C          27.1842   28.4872    0.7502 C.2       5 UNK         0.5055 
     38 O          26.9340   27.6929    1.6609 O.2       5 UNK        -0.5220 
     39 N          26.3121   29.3946    0.2839 N.am      6 UNK        -0.4450 
     40 CA         24.9754   29.6493    0.8397 C.3       6 UNK         0.0367 
     41 CB         24.2317   30.6561   -0.0517 C.3       6 UNK        -0.1929 
     42 C          25.0174   30.1396    2.2990 C.2       6 UNK         0.5070 
     43 O          24.1535   29.7723    3.0953 O.2       6 UNK        -0.5237 
     44 N          26.0563   30.9158    2.6196 N.am      7 UNK        -0.4739 
     45 CA         26.5564   31.1604    3.9667 C.3       7 UNK         0.0276 
     46 CB         26.5104   32.6671    4.2666 C.3       7 UNK        -0.1927 
     47 C          28.0000   30.6410    3.9779 C.2       7 UNK         0.5013 
     48 O          28.6701   30.7190    2.9433 O.2       7 UNK        -0.5193 
     49 N          28.4449   30.1053    5.1214 N.am      8 UNK        -0.4253 
     50 CA         29.7596   29.4771    5.2855 C.3       8 UNK         0.0242 
     51 CB         29.8567   28.8558    6.6884 C.3       8 UNK        -0.2000 
     52 C          30.9274   30.4502    5.0441 C.2       8 UNK         0.4948 
     53 O          30.8587   31.6105    5.4593 O.2       8 UNK        -0.5275 
     54 N          31.9792   29.9417    4.3933 N.am      9 UNK        -0.4246 
     55 CA         33.2250   30.6565    4.1186 C.3       9 UNK         0.0261 
     56 CB         33.9380   29.9436    2.9539 C.3       9 UNK        -0.1959 
     57 C          34.1322   30.7250    5.3618 C.2       9 UNK         0.5033 
     58 O          33.8491   30.0877    6.3796 O.2       9 UNK        -0.5390 
     59 N          35.2362   31.4763    5.2427 N.am      10 UNK        -0.4215 
     60 CA         36.3101   31.5259    6.2426 C.3       10 UNK         0.0240 
     61 CB         37.2536   32.6980    5.9259 C.3       10 UNK        -0.1982 
     62 C          37.0998   30.2054    6.3389 C.2       10 UNK         0.4970 
     63 O          37.5758   29.8688    7.4235 O.2       10 UNK        -0.4916 
     64 N          37.2090   29.4905    5.2087 N.am      11 UNK        -0.4279 
     65 CA         37.8079   28.1501    5.0660 C.3       11 UNK         0.1003 
     66 C          39.3452   28.0818    5.3215 C.2       11 UNK         0.5709 
     67 N          40.0666   29.1965    5.3110 N.am      11 UNK        -0.7358 
     68 O          39.9038   27.0010    5.4963 O.2       11 UNK        -0.4999 
     69 C69        37.0180   27.0466    5.8313 C.3       12 UNK        -0.0954 
     70 S70        35.2413   27.0225    5.4124 S.3       12 UNK        -0.2268 
     71 C71        35.1851   25.7009    4.1691 C.3       12 UNK         0.0203 
     72 H72        29.0620   22.8073   -2.1893 H         1 UNK         0.0888 
     73 H73        30.5558   23.4533   -1.5061 H         1 UNK         0.0888 
     74 H74        29.8992   21.9270   -0.9085 H         1 UNK         0.0888 
     75 H75        29.0078   22.2191    1.1423 H         1 UNK         0.3017 
     76 H76        28.2139   24.7534    2.2000 H         1 UNK         0.0873 
     77 H77        27.5155   22.0142    3.3477 H         1 UNK         0.0745 
     78 H78        27.5858   23.5252    4.2097 H         1 UNK         0.0745 
     79 H79        30.6967   23.9373    5.5798 H         1 UNK         0.0705 
     80 H80        29.5490   24.8630    4.6480 H         1 UNK         0.0705 
     81 H81        32.9811   24.5806    5.3041 H         1 UNK         0.1334 
     82 H82        34.2995   26.5441    1.7214 H         1 UNK         0.1417 
     83 H83        30.2947   25.0866    2.0162 H         1 UNK         0.1562 
     84 H84        31.2150   25.7398   -0.1717 H         1 UNK         0.0748 
     85 H85        32.8505   26.3277   -0.2963 H         1 UNK         0.0748 
     86 H86        29.6617   28.5521    1.9286 H         1 UNK         0.0940 
     87 H87        29.4723   26.9367    1.3199 H         1 UNK         0.0940 
     88 H88        28.8055   29.4376   -0.2890 H         1 UNK         0.0703 
     89 H89        28.5349   26.5473   -0.9052 H         1 UNK         0.3081 
     90 H90        27.2694   27.2356   -4.2011 H         1 UNK         0.0719 
     91 H91        29.7353   26.8990   -4.1865 H         1 UNK         0.0809 
     92 H92        29.5896   25.6746   -2.9331 H         1 UNK         0.0809 
     93 H93        28.9021   25.3912   -4.5293 H         1 UNK         0.0809 
     94 H94        27.1930   25.3310   -1.8816 H         1 UNK         0.2990 
     95 H95        23.8630   24.3603   -2.7798 H         1 UNK         0.0690 
     96 H96        24.8390   22.1288   -2.3506 H         1 UNK         0.0788 
     97 H97        26.4729   22.7777   -2.4811 H         1 UNK         0.0788 
     98 H98        25.4208   22.7413   -3.8899 H         1 UNK         0.0788 
     99 H99        25.3808   23.7559   -0.4639 H         1 UNK         0.2993 
    100 H100       24.3902   26.5068    1.5347 H         1 UNK         0.0949 
    101 H101       23.3374   23.6331    1.5383 H         1 UNK         0.0767 
    102 H102       23.4267   24.6925    2.9458 H         1 UNK         0.0767 
    103 H103       22.3827   25.1032    1.5944 H         1 UNK         0.0767 
    104 H104       26.4078   25.8409    1.9471 H         1 UNK         0.3013 
    105 H105       26.5877   29.9543   -0.5124 H         1 UNK         0.3121 
    106 H106       24.4219   28.7098    0.8212 H         1 UNK         0.0774 
    107 H107       23.2277   30.8461    0.3305 H         1 UNK         0.0815 
    108 H108       24.7490   31.6150   -0.1000 H         1 UNK         0.0815 
    109 H109       24.1228   30.2794   -1.0690 H         1 UNK         0.0815 
    110 H110       26.7421   31.0962    1.8976 H         1 UNK         0.2987 
    111 H111       25.9668   30.6157    4.7078 H         1 UNK         0.0949 
    112 H112       25.4908   33.0490    4.2137 H         1 UNK         0.0806 
    113 H113       26.8853   32.8768    5.2692 H         1 UNK         0.0806 
    114 H114       27.1188   33.2383    3.5641 H         1 UNK         0.0806 
    115 H115       27.8452   30.1158    5.9334 H         1 UNK         0.3010 
    116 H116       29.8238   28.6711    4.5508 H         1 UNK         0.0829 
    117 H117       29.0830   28.1045    6.8473 H         1 UNK         0.0813 
    118 H118       30.8197   28.3625    6.8303 H         1 UNK         0.0813 
    119 H119       29.7613   29.6108    7.4700 H         1 UNK         0.0813 
    120 H120       31.9670   28.9648    4.1391 H         1 UNK         0.3038 
    121 H121       32.9835   31.6772    3.8138 H         1 UNK         0.0769 
    122 H122       34.8367   30.4778    2.6450 H         1 UNK         0.0811 
    123 H123       33.2928   29.8770    2.0775 H         1 UNK         0.0811 
    124 H124       34.2359   28.9296    3.2232 H         1 UNK         0.0811 
    125 H125       35.3838   31.9962    4.3891 H         1 UNK         0.3204 
    126 H126       35.8558   31.7084    7.2190 H         1 UNK         0.0748 
    127 H127       38.0497   32.7687    6.6686 H         1 UNK         0.0771 
    128 H128       37.7273   32.5869    4.9497 H         1 UNK         0.0771 
    129 H129       36.7208   33.6492    5.9348 H         1 UNK         0.0771 
    130 H130       36.8024   29.8702    4.3682 H         1 UNK         0.2980 
    131 H131       37.7124   27.9177    4.0049 H         1 UNK         0.0545 
    132 H132       41.0611   29.1421    5.4652 H         1 UNK         0.3459 
    133 H133       39.6258   30.0893    5.1604 H         1 UNK         0.3459 
    134 H134       37.4352   26.0589    5.6279 H         1 UNK         0.0616 
    135 H135       37.1086   27.1939    6.9085 H         1 UNK         0.0616 
    136 H136       35.4816   24.7573    4.6295 H         1 UNK         0.0634 
    137 H137       35.9175   25.9109    3.3879 H         1 UNK         0.0634 
@<TRIPOS>BOND
     1    1    2 1    
     2    1   72 1    
     3    1   73 1    
     4    1   74 1    
     5    2    3 2    
     6    2    4 am   BACKBONE|DICT|INTERRES
     7    4    5 1    
     8    4   75 1    
     9    5    6 1    
    10    5   35 1    
    11    5   76 1    
    12    6    7 1    
    13    6   77 1    
    14    6   78 1    
    15    7    8 1    
    16    8    9 1    
    17    8   79 1    
    18    8   80 1    
    19    9   10 ar   
    20    9   14 ar   
    21   10   11 ar   
    22   10   81 1    
    23   11   12 ar   
    24   11   71 1    
    25   12   13 ar   
    26   12   82 1    
    27   13   14 ar   
    28   13   15 1    
    29   14   83 1    
    30   15   16 1    
    31   15   84 1    
    32   15   85 1    
    33   16   17 1    
    34   17   18 1    
    35   17   86 1    
    36   17   87 1    
    37   18   19 1    
    38   18   37 1    
    39   18   88 1    
    40   19   20 am   BACKBONE|DICT|INTERRES
    41   19   89 1    
    42   20   21 2    
    43   20   22 1    
    44   22   23 1    
    45   22   24 1    
    46   22   90 1    
    47   23   91 1    
    48   23   92 1    
    49   23   93 1    
    50   24   25 am   BACKBONE|DICT|INTERRES
    51   24   94 1    
    52   25   26 2    
    53   25   27 1    
    54   27   28 1    
    55   27   29 1    
    56   27   95 1    
    57   28   96 1    
    58   28   97 1    
    59   28   98 1    
    60   29   30 am   BACKBONE|DICT|INTERRES
    61   29   99 1    
    62   30   31 2    
    63   30   32 1    
    64   32   33 1    
    65   32   34 1    
    66   32  100 1    
    67   33  101 1    
    68   33  102 1    
    69   33  103 1    
    70   34   35 am   BACKBONE|DICT|INTERRES
    71   34  104 1    
    72   35   36 2    
    73   37   38 2    
    74   37   39 am   BACKBONE|DICT|INTERRES
    75   39   40 1    
    76   39  105 1    
    77   40   41 1    
    78   40   42 1    
    79   40  106 1    
    80   41  107 1    
    81   41  108 1    
    82   41  109 1    
    83   42   43 2    
    84   42   44 am   BACKBONE|DICT|INTERRES
    85   44   45 1    
    86   44  110 1    
    87   45   46 1    
    88   45   47 1    
    89   45  111 1    
    90   46  112 1    
    91   46  113 1    
    92   46  114 1    
    93   47   48 2    
    94   47   49 am   BACKBONE|DICT|INTERRES
    95   49   50 1    
    96   49  115 1    
    97   50   51 1    
    98   50   52 1    
    99   50  116 1    
   100   51  117 1    
   101   51  118 1    
   102   51  119 1    
   103   52   53 2    
   104   52   54 am   BACKBONE|DICT|INTERRES
   105   54   55 1    
   106   54  120 1    
   107   55   56 1    
   108   55   57 1    
   109   55  121 1    
   110   56  122 1    
   111   56  123 1    
   112   56  124 1    
   113   57   58 2    
   114   57   59 am   BACKBONE|DICT|INTERRES
   115   59   60 1    
   116   59  125 1    
   117   60   61 1    
   118   60   62 1    
   119   60  126 1    
   120   61  127 1    
   121   61  128 1    
   122   61  129 1    
   123   62   63 2    
   124   62   64 am   BACKBONE|DICT|INTERRES
   125   64   65 1    
   126   64  130 1    
   127   65   66 1    
   128   65   69 1    
   129   65  131 1    
   130   66   67 am   BACKBONE|DICT|INTERRES
   131   66   68 2    
   132   67  132 1    
   133   67  133 1    
   134   69   70 1    
   135   69  134 1    
   136   69  135 1    
   137   70   71 1    
   138   71  136 1    
   139   71  137 1    
@<TRIPOS>SUBSTRUCTURE
     1 UNK         1 GROUP             0       ****    0 ROOT    
