@<TRIPOS>MOLECULE
3R136
137   139    1
SMALL
USER_CHARGES


@<TRIPOS>ATOM
      1 CA         26.5151   21.6770    2.3882 C.3       0 UNK        -0.1979 
      2 C          27.0856   21.6973    0.9785 C.2       0 UNK         0.4864 
      3 O          26.4861   22.2975    0.0865 O.2       0 UNK        -0.5359 
      4 N          28.2465   21.0559    0.7800 N.am      1 UNK        -0.4318 
      5 CA         28.9597   20.8823   -0.4955 C.3       1 UNK         0.0824 
      6 C6         30.2590   20.0349   -0.3454 C.3       12 UNK        -0.0944 
      7 S7         31.2202   20.2847    1.1940 S.3       12 UNK        -0.2672 
      8 C8         32.1934   21.7965    0.8539 C.3       12 UNK         0.0333 
      9 C9         31.9517   22.9387    1.8466 C.ar      12 UNK        -0.0807 
     10 C10        32.9553   23.8937    2.0509 C.ar      12 UNK        -0.0894 
     11 C11        32.7607   24.9620    2.9351 C.ar      12 UNK        -0.0804 
     12 C12        31.5444   25.0837    3.6135 C.ar      12 UNK        -0.0824 
     13 C13        30.5402   24.1295    3.4336 C.ar      12 UNK        -0.0762 
     14 C14        30.7477   23.0696    2.5500 C.ar      12 UNK        -0.0782 
     15 C15        29.2387   24.2095    4.2119 C.3       12 UNK         0.0230 
     16 S16        27.9452   25.0558    3.2511 S.3       12 UNK        -0.2608 
     17 C17        27.6655   26.5691    4.2325 C.3       12 UNK        -0.0989 
     18 CA         28.1082   27.8450    3.4819 C.3       5 UNK         0.0716 
     19 N          27.3676   28.0131    2.2292 N.am      5 UNK        -0.4135 
     20 C          27.4952   29.0150    1.3490 C.2       4 UNK         0.5031 
     21 O          28.2881   29.9529    1.4760 O.2       4 UNK        -0.5229 
     22 CA         26.6056   28.9178    0.1009 C.3       4 UNK         0.0329 
     23 CB         27.0174   29.9019   -1.0108 C.3       4 UNK        -0.2001 
     24 N          26.6234   27.5456   -0.4090 N.am      4 UNK        -0.4303 
     25 C          25.6148   26.9186   -1.0266 C.2       3 UNK         0.5044 
     26 O          24.5195   27.4447   -1.2296 O.2       3 UNK        -0.5152 
     27 CA         25.8339   25.4525   -1.4702 C.3       3 UNK         0.0319 
     28 CB         25.4240   25.2349   -2.9418 C.3       3 UNK        -0.2001 
     29 N          27.1757   24.9019   -1.2148 N.am      3 UNK        -0.4354 
     30 C          28.3444   25.2997   -1.7449 C.2       2 UNK         0.4964 
     31 O          28.4488   26.2125   -2.5636 O.2       2 UNK        -0.5047 
     32 CA         29.6270   24.6133   -1.2450 C.3       2 UNK         0.0288 
     33 CB         30.3570   25.5268   -0.2523 C.3       2 UNK        -0.2113 
     34 N          29.3938   23.3138   -0.6149 N.am      2 UNK        -0.4145 
     35 C          29.2231   22.1750   -1.2993 C.2       1 UNK         0.5006 
     36 O          29.2661   22.1114   -2.5294 O.2       1 UNK        -0.5103 
     37 C          27.9456   29.0739    4.3938 C.2       5 UNK         0.5055 
     38 O          26.8121   29.4849    4.6529 O.2       5 UNK        -0.5220 
     39 N          29.0738   29.6460    4.8334 N.am      6 UNK        -0.4450 
     40 CA         29.2377   30.8554    5.6552 C.3       6 UNK         0.0367 
     41 CB         28.5701   30.6976    7.0346 C.3       6 UNK        -0.1929 
     42 C          28.8023   32.1688    4.9749 C.2       6 UNK         0.5070 
     43 O          29.4440   33.1945    5.2003 O.2       6 UNK        -0.5237 
     44 N          27.7449   32.1246    4.1537 N.am      7 UNK        -0.4739 
     45 CA         27.2241   33.2371    3.3551 C.3       7 UNK         0.0276 
     46 CB         25.9095   32.8070    2.6840 C.3       7 UNK        -0.1927 
     47 C          28.2281   33.7381    2.3043 C.2       7 UNK         0.5013 
     48 O          28.3430   34.9485    2.1063 O.2       7 UNK        -0.5193 
     49 N          28.9459   32.7998    1.6767 N.am      8 UNK        -0.4253 
     50 CA         30.0623   33.0658    0.7721 C.3       8 UNK         0.0242 
     51 CB         29.6102   32.9064   -0.6892 C.3       8 UNK        -0.2000 
     52 C          31.2368   32.1358    1.0937 C.2       8 UNK         0.4948 
     53 O          32.3708   32.6053    1.1988 O.2       8 UNK        -0.5275 
     54 N          30.9530   30.8381    1.2626 N.am      9 UNK        -0.4246 
     55 CA         31.9363   29.8088    1.5806 C.3       9 UNK         0.0261 
     56 CB         31.4992   28.4877    0.9315 C.3       9 UNK        -0.1959 
     57 C          32.0928   29.6863    3.1004 C.2       9 UNK         0.5033 
     58 O          31.5070   28.7913    3.7141 O.2       9 UNK        -0.5390 
     59 N          32.8602   30.6064    3.6888 N.am      10 UNK        -0.4215 
     60 CA         33.3166   30.5221    5.0725 C.3       10 UNK         0.0240 
     61 CB         33.4098   31.9372    5.6675 C.3       10 UNK        -0.1982 
     62 C          34.6812   29.8210    5.0728 C.2       10 UNK         0.4970 
     63 O          35.6112   30.3239    4.4380 O.2       10 UNK        -0.4916 
     64 N          34.7727   28.6788    5.7598 N.am      11 UNK        -0.4279 
     65 CA         35.9903   27.8568    5.8532 C.3       11 UNK         0.1003 
     66 C          36.2283   27.2399    7.2624 C.2       11 UNK         0.5709 
     67 N          35.4945   27.6406    8.2951 N.am      11 UNK        -0.7358 
     68 O          37.1122   26.4035    7.4342 O.2       11 UNK        -0.4999 
     69 C69        36.1036   26.8377    4.6831 C.3       12 UNK        -0.0954 
     70 S70        34.8065   25.5515    4.6784 S.3       12 UNK        -0.2268 
     71 C71        33.8704   25.9738    3.1778 C.3       12 UNK         0.0203 
     72 H72        25.6710   20.9901    2.4394 H         1 UNK         0.0888 
     73 H73        27.2568   21.3651    3.1232 H         1 UNK         0.0888 
     74 H74        26.1615   22.6692    2.6665 H         1 UNK         0.0888 
     75 H75        28.6776   20.5766    1.5584 H         1 UNK         0.3017 
     76 H76        28.2782   20.3054   -1.1247 H         1 UNK         0.0873 
     77 H77        29.9765   18.9810   -0.3499 H         1 UNK         0.0745 
     78 H78        30.9217   20.1436   -1.2069 H         1 UNK         0.0745 
     79 H79        31.9927   22.1583   -0.1545 H         1 UNK         0.0705 
     80 H80        33.2483   21.5186    0.8708 H         1 UNK         0.0705 
     81 H81        33.8953   23.8035    1.5235 H         1 UNK         0.1334 
     82 H82        31.3916   25.9089    4.2964 H         1 UNK         0.1417 
     83 H83        29.9607   22.3428    2.4291 H         1 UNK         0.1562 
     84 H84        29.4095   24.6905    5.1750 H         1 UNK         0.0748 
     85 H85        28.8890   23.2032    4.4479 H         1 UNK         0.0748 
     86 H86        28.1783   26.4958    5.1927 H         1 UNK         0.0940 
     87 H87        26.6015   26.6189    4.4740 H         1 UNK         0.0940 
     88 H88        29.1616   27.7377    3.2200 H         1 UNK         0.0703 
     89 H89        26.6804   27.2993    2.0384 H         1 UNK         0.3081 
     90 H90        25.5940   29.1698    0.4260 H         1 UNK         0.0719 
     91 H91        28.0323   29.7085   -1.3599 H         1 UNK         0.0809 
     92 H92        26.3495   29.8324   -1.8693 H         1 UNK         0.0809 
     93 H93        26.9788   30.9324   -0.6554 H         1 UNK         0.0809 
     94 H94        27.4920   27.0424   -0.2965 H         1 UNK         0.2990 
     95 H95        25.1582   24.8571   -0.8543 H         1 UNK         0.0690 
     96 H96        25.5401   24.1913   -3.2346 H         1 UNK         0.0788 
     97 H97        26.0179   25.8439   -3.6238 H         1 UNK         0.0788 
     98 H98        24.3778   25.4994   -3.1009 H         1 UNK         0.0788 
     99 H99        27.1856   24.1050   -0.5851 H         1 UNK         0.2993 
    100 H100       30.2762   24.4750   -2.1127 H         1 UNK         0.0949 
    101 H101       29.7884   25.6773    0.6665 H         1 UNK         0.0767 
    102 H102       31.3322   25.1228    0.0161 H         1 UNK         0.0767 
    103 H103       30.5307   26.5038   -0.7011 H         1 UNK         0.0767 
    104 H104       29.3473   23.2913    0.3928 H         1 UNK         0.3013 
    105 H105       29.9523   29.2460    4.4993 H         1 UNK         0.3121 
    106 H106       30.3117   30.9432    5.8236 H         1 UNK         0.0774 
    107 H107       28.7952   31.5525    7.6736 H         1 UNK         0.0815 
    108 H108       27.4846   30.6298    6.9589 H         1 UNK         0.0815 
    109 H109       28.9280   29.8058    7.5488 H         1 UNK         0.0815 
    110 H110       27.2566   31.2356    4.0856 H         1 UNK         0.2987 
    111 H111       27.0133   34.0658    4.0345 H         1 UNK         0.0949 
    112 H112       25.4869   33.6224    2.0952 H         1 UNK         0.0806 
    113 H113       26.0568   31.9607    2.0116 H         1 UNK         0.0806 
    114 H114       25.1617   32.5207    3.4238 H         1 UNK         0.0806 
    115 H115       28.7469   31.8259    1.8845 H         1 UNK         0.3010 
    116 H116       30.4178   34.0891    0.9129 H         1 UNK         0.0829 
    117 H117       28.7956   33.5902   -0.9279 H         1 UNK         0.0813 
    118 H118       30.4293   33.1240   -1.3758 H         1 UNK         0.0813 
    119 H119       29.2691   31.8927   -0.8992 H         1 UNK         0.0813 
    120 H120       29.9857   30.5247    1.2083 H         1 UNK         0.3038 
    121 H121       32.9080   30.0752    1.1584 H         1 UNK         0.0769 
    122 H122       30.5172   28.1677    1.2789 H         1 UNK         0.0811 
    123 H123       32.2026   27.6858    1.1584 H         1 UNK         0.0811 
    124 H124       31.4563   28.5868   -0.1529 H         1 UNK         0.0811 
    125 H125       33.2962   31.3133    3.1100 H         1 UNK         0.3204 
    126 H126       32.6096   29.9471    5.6745 H         1 UNK         0.0748 
    127 H127       33.7443   31.9022    6.7051 H         1 UNK         0.0771 
    128 H128       34.1129   32.5650    5.1183 H         1 UNK         0.0771 
    129 H129       32.4400   32.4357    5.6555 H         1 UNK         0.0771 
    130 H130       33.9579   28.3045    6.2242 H         1 UNK         0.2980 
    131 H131       36.8427   28.5308    5.7495 H         1 UNK         0.0545 
    132 H132       35.6693   27.2353    9.2014 H         1 UNK         0.3459 
    133 H133       34.8087   28.3711    8.1991 H         1 UNK         0.3459 
    134 H134       37.0722   26.3361    4.7137 H         1 UNK         0.0616 
    135 H135       36.0873   27.3714    3.7317 H         1 UNK         0.0616 
    136 H136       34.5466   26.0085    2.3223 H         1 UNK         0.0634 
    137 H137       33.4511   26.9737    3.2865 H         1 UNK         0.0634 
@<TRIPOS>BOND
     1    1    2 1    
     2    1   72 1    
     3    1   73 1    
     4    1   74 1    
     5    2    3 2    
     6    2    4 am   BACKBONE|DICT|INTERRES
     7    4    5 1    
     8    4   75 1    
     9    5    6 1    
    10    5   35 1    
    11    5   76 1    
    12    6    7 1    
    13    6   77 1    
    14    6   78 1    
    15    7    8 1    
    16    8    9 1    
    17    8   79 1    
    18    8   80 1    
    19    9   10 ar   
    20    9   14 ar   
    21   10   11 ar   
    22   10   81 1    
    23   11   12 ar   
    24   11   71 1    
    25   12   13 ar   
    26   12   82 1    
    27   13   14 ar   
    28   13   15 1    
    29   14   83 1    
    30   15   16 1    
    31   15   84 1    
    32   15   85 1    
    33   16   17 1    
    34   17   18 1    
    35   17   86 1    
    36   17   87 1    
    37   18   19 1    
    38   18   37 1    
    39   18   88 1    
    40   19   20 am   BACKBONE|DICT|INTERRES
    41   19   89 1    
    42   20   21 2    
    43   20   22 1    
    44   22   23 1    
    45   22   24 1    
    46   22   90 1    
    47   23   91 1    
    48   23   92 1    
    49   23   93 1    
    50   24   25 am   BACKBONE|DICT|INTERRES
    51   24   94 1    
    52   25   26 2    
    53   25   27 1    
    54   27   28 1    
    55   27   29 1    
    56   27   95 1    
    57   28   96 1    
    58   28   97 1    
    59   28   98 1    
    60   29   30 am   BACKBONE|DICT|INTERRES
    61   29   99 1    
    62   30   31 2    
    63   30   32 1    
    64   32   33 1    
    65   32   34 1    
    66   32  100 1    
    67   33  101 1    
    68   33  102 1    
    69   33  103 1    
    70   34   35 am   BACKBONE|DICT|INTERRES
    71   34  104 1    
    72   35   36 2    
    73   37   38 2    
    74   37   39 am   BACKBONE|DICT|INTERRES
    75   39   40 1    
    76   39  105 1    
    77   40   41 1    
    78   40   42 1    
    79   40  106 1    
    80   41  107 1    
    81   41  108 1    
    82   41  109 1    
    83   42   43 2    
    84   42   44 am   BACKBONE|DICT|INTERRES
    85   44   45 1    
    86   44  110 1    
    87   45   46 1    
    88   45   47 1    
    89   45  111 1    
    90   46  112 1    
    91   46  113 1    
    92   46  114 1    
    93   47   48 2    
    94   47   49 am   BACKBONE|DICT|INTERRES
    95   49   50 1    
    96   49  115 1    
    97   50   51 1    
    98   50   52 1    
    99   50  116 1    
   100   51  117 1    
   101   51  118 1    
   102   51  119 1    
   103   52   53 2    
   104   52   54 am   BACKBONE|DICT|INTERRES
   105   54   55 1    
   106   54  120 1    
   107   55   56 1    
   108   55   57 1    
   109   55  121 1    
   110   56  122 1    
   111   56  123 1    
   112   56  124 1    
   113   57   58 2    
   114   57   59 am   BACKBONE|DICT|INTERRES
   115   59   60 1    
   116   59  125 1    
   117   60   61 1    
   118   60   62 1    
   119   60  126 1    
   120   61  127 1    
   121   61  128 1    
   122   61  129 1    
   123   62   63 2    
   124   62   64 am   BACKBONE|DICT|INTERRES
   125   64   65 1    
   126   64  130 1    
   127   65   66 1    
   128   65   69 1    
   129   65  131 1    
   130   66   67 am   BACKBONE|DICT|INTERRES
   131   66   68 2    
   132   67  132 1    
   133   67  133 1    
   134   69   70 1    
   135   69  134 1    
   136   69  135 1    
   137   70   71 1    
   138   71  136 1    
   139   71  137 1    
@<TRIPOS>SUBSTRUCTURE
     1 UNK         1 GROUP             0       ****    0 ROOT    
