@<TRIPOS>MOLECULE
3R136
137   139    1
SMALL
USER_CHARGES


@<TRIPOS>ATOM
      1 CA         29.0705   24.8593    4.7894 C.3       0 UNK        -0.1979 
      2 C          28.6473   24.8130    3.3294 C.2       0 UNK         0.4864 
      3 O          28.5847   25.8569    2.6782 O.2       0 UNK        -0.5359 
      4 N          28.3470   23.6040    2.8315 N.am      1 UNK        -0.4318 
      5 CA         28.0234   23.2740    1.4335 C.3       1 UNK         0.0824 
      6 C6         29.2574   23.3579    0.4925 C.3       12 UNK        -0.0944 
      7 S7         30.6421   22.3282    1.0993 S.3       12 UNK        -0.2672 
      8 C8         32.1149   23.2388    0.5302 C.3       12 UNK         0.0333 
      9 C9         32.2073   24.6483    1.1015 C.ar      12 UNK        -0.0807 
     10 C10        32.4740   24.8553    2.4592 C.ar      12 UNK        -0.0894 
     11 C11        32.5768   26.1542    2.9696 C.ar      12 UNK        -0.0804 
     12 C12        32.4012   27.2475    2.1176 C.ar      12 UNK        -0.0824 
     13 C13        32.1278   27.0525    0.7618 C.ar      12 UNK        -0.0762 
     14 C14        32.0458   25.7511    0.2583 C.ar      12 UNK        -0.0782 
     15 C15        31.9106   28.2445   -0.1590 C.3       12 UNK         0.0230 
     16 S16        30.2039   28.8706   -0.0448 S.3       12 UNK        -0.2608 
     17 C17        29.2652   27.3984   -0.5755 C.3       12 UNK        -0.0989 
     18 CA         27.9005   27.7155   -1.2342 C.3       5 UNK         0.0716 
     19 N          27.4595   26.5874   -2.0425 N.am      5 UNK        -0.4135 
     20 C          27.4060   26.5204   -3.3741 C.2       4 UNK         0.5031 
     21 O          27.8342   27.3895   -4.1346 O.2       4 UNK        -0.5229 
     22 CA         26.7368   25.2620   -3.9486 C.3       4 UNK         0.0329 
     23 CB         27.7528   24.1130   -4.0559 C.3       4 UNK        -0.2001 
     24 N          25.6062   24.8340   -3.1200 N.am      4 UNK        -0.4303 
     25 C          24.3835   25.3833   -3.1547 C.2       3 UNK         0.5044 
     26 O          24.0408   26.2636   -3.9443 O.2       3 UNK        -0.5152 
     27 CA         23.3877   24.8705   -2.1086 C.3       3 UNK         0.0319 
     28 CB         23.0628   23.3856   -2.3960 C.3       3 UNK        -0.2001 
     29 N          23.9694   25.1154   -0.7834 N.am      3 UNK        -0.4354 
     30 C          23.7276   24.5108    0.3864 C.2       2 UNK         0.4964 
     31 O          22.9149   23.6010    0.5597 O.2       2 UNK        -0.5047 
     32 CA         24.5681   25.0062    1.5775 C.3       2 UNK         0.0288 
     33 CB         23.7624   25.0050    2.8893 C.3       2 UNK        -0.2113 
     34 N          25.7921   24.2266    1.7747 N.am      2 UNK        -0.4145 
     35 C          26.8000   24.0574    0.9028 C.2       1 UNK         0.5006 
     36 O          26.8040   24.5006   -0.2489 O.2       1 UNK        -0.5103 
     37 C          26.7786   28.0134   -0.2183 C.2       5 UNK         0.5055 
     38 O          25.6428   27.5615   -0.4030 O.2       5 UNK        -0.5220 
     39 N          27.1075   28.7690    0.8324 N.am      6 UNK        -0.4450 
     40 CA         26.2158   29.1224    1.9330 C.3       6 UNK         0.0367 
     41 CB         25.2663   30.2632    1.5100 C.3       6 UNK        -0.1929 
     42 C          27.0409   29.4504    3.1869 C.2       6 UNK         0.5070 
     43 O          26.8112   30.4873    3.8106 O.2       6 UNK        -0.5237 
     44 N          27.9913   28.5639    3.5267 N.am      7 UNK        -0.4739 
     45 CA         28.8699   28.6172    4.7037 C.3       7 UNK         0.0276 
     46 CB         28.0542   28.3679    5.9912 C.3       7 UNK        -0.1927 
     47 C          29.7159   29.9029    4.7755 C.2       7 UNK         0.5013 
     48 O          29.6380   30.6407    5.7611 O.2       7 UNK        -0.5193 
     49 N          30.4940   30.1568    3.7133 N.am      8 UNK        -0.4253 
     50 CA         31.3919   31.3108    3.6020 C.3       8 UNK         0.0242 
     51 CB         32.0044   31.3547    2.1929 C.3       8 UNK        -0.2000 
     52 C          32.5043   31.3113    4.6669 C.2       8 UNK         0.4948 
     53 O          32.9605   30.2457    5.0918 O.2       8 UNK        -0.5275 
     54 N          32.9510   32.5213    5.0328 N.am      9 UNK        -0.4246 
     55 CA         33.9332   32.8052    6.0878 C.3       9 UNK         0.0261 
     56 CB         34.0510   34.3286    6.2627 C.3       9 UNK        -0.1959 
     57 C          35.3275   32.1809    5.8900 C.2       9 UNK         0.5033 
     58 O          36.0869   32.1064    6.8570 O.2       9 UNK        -0.5390 
     59 N          35.6356   31.7165    4.6704 N.am      10 UNK        -0.4215 
     60 CA         36.8563   30.9867    4.3124 C.3       10 UNK         0.0240 
     61 CB         36.8192   30.6534    2.8117 C.3       10 UNK        -0.1982 
     62 C          37.0922   29.7068    5.1390 C.2       10 UNK         0.4970 
     63 O          38.2486   29.3309    5.3354 O.2       10 UNK        -0.4916 
     64 N          36.0104   29.0802    5.6218 N.am      11 UNK        -0.4279 
     65 CA         36.0561   27.9374    6.5480 C.3       11 UNK         0.1003 
     66 C          36.2937   28.3308    8.0367 C.2       11 UNK         0.5709 
     67 N          36.3674   29.6065    8.4004 N.am      11 UNK        -0.7358 
     68 O          36.4310   27.4531    8.8858 O.2       11 UNK        -0.4999 
     69 C69        34.8148   27.0207    6.3926 C.3       12 UNK        -0.0954 
     70 S70        34.6891   26.3346    4.7088 S.3       12 UNK        -0.2268 
     71 C71        32.8950   26.3878    4.4360 C.3       12 UNK         0.0203 
     72 H72        29.2799   23.8649    5.1831 H         1 UNK         0.0888 
     73 H73        29.9734   25.4571    4.8992 H         1 UNK         0.0888 
     74 H74        28.2836   25.3053    5.3949 H         1 UNK         0.0888 
     75 H75        28.4172   22.8032    3.4436 H         1 UNK         0.3017 
     76 H76        27.7030   22.2310    1.4434 H         1 UNK         0.0873 
     77 H77        29.0026   23.0181   -0.5129 H         1 UNK         0.0745 
     78 H78        29.5794   24.3937    0.3941 H         1 UNK         0.0745 
     79 H79        33.0053   22.6795    0.8208 H         1 UNK         0.0705 
     80 H80        32.1133   23.2603   -0.5607 H         1 UNK         0.0705 
     81 H81        32.6099   24.0061    3.1148 H         1 UNK         0.1334 
     82 H82        32.4820   28.2493    2.5136 H         1 UNK         0.1417 
     83 H83        31.8442   25.5951   -0.7925 H         1 UNK         0.1562 
     84 H84        32.1298   27.9770   -1.1939 H         1 UNK         0.0748 
     85 H85        32.6054   29.0445    0.0984 H         1 UNK         0.0748 
     86 H86        29.1504   26.7178    0.2697 H         1 UNK         0.0940 
     87 H87        29.8835   26.8675   -1.3003 H         1 UNK         0.0940 
     88 H88        27.9998   28.5993   -1.8676 H         1 UNK         0.0703 
     89 H89        27.0694   25.8199   -1.4989 H         1 UNK         0.3081 
     90 H90        26.3751   25.4972   -4.9520 H         1 UNK         0.0719 
     91 H91        28.1449   23.8253   -3.0792 H         1 UNK         0.0809 
     92 H92        27.3044   23.2295   -4.5107 H         1 UNK         0.0809 
     93 H93        28.6022   24.4009   -4.6770 H         1 UNK         0.0809 
     94 H94        25.8000   24.1498   -2.4004 H         1 UNK         0.2990 
     95 H95        22.4716   25.4579   -2.1897 H         1 UNK         0.0690 
     96 H96        22.1856   23.0539   -1.8410 H         1 UNK         0.0788 
     97 H97        23.8926   22.7263   -2.1392 H         1 UNK         0.0788 
     98 H98        22.8359   23.2296   -3.4518 H         1 UNK         0.0788 
     99 H99        24.6524   25.8709   -0.7662 H         1 UNK         0.2993 
    100 H100       24.8615   26.0371    1.3888 H         1 UNK         0.0949 
    101 H101       23.4888   23.9948    3.1971 H         1 UNK         0.0767 
    102 H102       24.3274   25.4625    3.7020 H         1 UNK         0.0767 
    103 H103       22.8382   25.5740    2.7790 H         1 UNK         0.0767 
    104 H104       25.9005   23.8078    2.6863 H         1 UNK         0.3013 
    105 H105       28.0672   29.0853    0.9119 H         1 UNK         0.3121 
    106 H106       25.6099   28.2506    2.1881 H         1 UNK         0.0774 
    107 H107       24.5860   30.5280    2.3204 H         1 UNK         0.0815 
    108 H108       25.8188   31.1630    1.2374 H         1 UNK         0.0815 
    109 H109       24.6507   29.9764    0.6575 H         1 UNK         0.0815 
    110 H110       28.0981   27.7219    2.9629 H         1 UNK         0.2987 
    111 H111       29.5792   27.7962    4.5961 H         1 UNK         0.0949 
    112 H112       27.3661   29.1881    6.1993 H         1 UNK         0.0806 
    113 H113       27.4655   27.4542    5.9223 H         1 UNK         0.0806 
    114 H114       28.7118   28.2685    6.8556 H         1 UNK         0.0806 
    115 H115       30.4848   29.5066    2.9416 H         1 UNK         0.3010 
    116 H116       30.7808   32.2054    3.7412 H         1 UNK         0.0829 
    117 H117       31.2338   31.3556    1.4220 H         1 UNK         0.0813 
    118 H118       32.5960   32.2601    2.0515 H         1 UNK         0.0813 
    119 H119       32.6661   30.5084    2.0119 H         1 UNK         0.0813 
    120 H120       32.5304   33.3314    4.5995 H         1 UNK         0.3038 
    121 H121       33.5352   32.3867    7.0145 H         1 UNK         0.0769 
    122 H122       34.4140   34.8121    5.3549 H         1 UNK         0.0811 
    123 H123       34.7473   34.5786    7.0648 H         1 UNK         0.0811 
    124 H124       33.0912   34.7754    6.5227 H         1 UNK         0.0811 
    125 H125       34.9412   31.8190    3.9457 H         1 UNK         0.3204 
    126 H126       37.7007   31.6535    4.4980 H         1 UNK         0.0748 
    127 H127       37.7272   30.1319    2.5051 H         1 UNK         0.0771 
    128 H128       35.9742   30.0098    2.5623 H         1 UNK         0.0771 
    129 H129       36.7466   31.5561    2.2047 H         1 UNK         0.0771 
    130 H130       35.0908   29.4514    5.4173 H         1 UNK         0.2980 
    131 H131       36.9243   27.3320    6.2802 H         1 UNK         0.0545 
    132 H132       36.2782   30.3598    7.7264 H         1 UNK         0.3459 
    133 H133       36.5291   29.8264    9.3701 H         1 UNK         0.3459 
    134 H134       33.9071   27.5741    6.6399 H         1 UNK         0.0616 
    135 H135       34.8613   26.1778    7.0845 H         1 UNK         0.0616 
    136 H136       32.4135   25.6311    5.0566 H         1 UNK         0.0634 
    137 H137       32.5006   27.3547    4.7541 H         1 UNK         0.0634 
@<TRIPOS>BOND
     1    1    2 1    
     2    1   72 1    
     3    1   73 1    
     4    1   74 1    
     5    2    3 2    
     6    2    4 am   BACKBONE|DICT|INTERRES
     7    4    5 1    
     8    4   75 1    
     9    5    6 1    
    10    5   35 1    
    11    5   76 1    
    12    6    7 1    
    13    6   77 1    
    14    6   78 1    
    15    7    8 1    
    16    8    9 1    
    17    8   79 1    
    18    8   80 1    
    19    9   10 ar   
    20    9   14 ar   
    21   10   11 ar   
    22   10   81 1    
    23   11   12 ar   
    24   11   71 1    
    25   12   13 ar   
    26   12   82 1    
    27   13   14 ar   
    28   13   15 1    
    29   14   83 1    
    30   15   16 1    
    31   15   84 1    
    32   15   85 1    
    33   16   17 1    
    34   17   18 1    
    35   17   86 1    
    36   17   87 1    
    37   18   19 1    
    38   18   37 1    
    39   18   88 1    
    40   19   20 am   BACKBONE|DICT|INTERRES
    41   19   89 1    
    42   20   21 2    
    43   20   22 1    
    44   22   23 1    
    45   22   24 1    
    46   22   90 1    
    47   23   91 1    
    48   23   92 1    
    49   23   93 1    
    50   24   25 am   BACKBONE|DICT|INTERRES
    51   24   94 1    
    52   25   26 2    
    53   25   27 1    
    54   27   28 1    
    55   27   29 1    
    56   27   95 1    
    57   28   96 1    
    58   28   97 1    
    59   28   98 1    
    60   29   30 am   BACKBONE|DICT|INTERRES
    61   29   99 1    
    62   30   31 2    
    63   30   32 1    
    64   32   33 1    
    65   32   34 1    
    66   32  100 1    
    67   33  101 1    
    68   33  102 1    
    69   33  103 1    
    70   34   35 am   BACKBONE|DICT|INTERRES
    71   34  104 1    
    72   35   36 2    
    73   37   38 2    
    74   37   39 am   BACKBONE|DICT|INTERRES
    75   39   40 1    
    76   39  105 1    
    77   40   41 1    
    78   40   42 1    
    79   40  106 1    
    80   41  107 1    
    81   41  108 1    
    82   41  109 1    
    83   42   43 2    
    84   42   44 am   BACKBONE|DICT|INTERRES
    85   44   45 1    
    86   44  110 1    
    87   45   46 1    
    88   45   47 1    
    89   45  111 1    
    90   46  112 1    
    91   46  113 1    
    92   46  114 1    
    93   47   48 2    
    94   47   49 am   BACKBONE|DICT|INTERRES
    95   49   50 1    
    96   49  115 1    
    97   50   51 1    
    98   50   52 1    
    99   50  116 1    
   100   51  117 1    
   101   51  118 1    
   102   51  119 1    
   103   52   53 2    
   104   52   54 am   BACKBONE|DICT|INTERRES
   105   54   55 1    
   106   54  120 1    
   107   55   56 1    
   108   55   57 1    
   109   55  121 1    
   110   56  122 1    
   111   56  123 1    
   112   56  124 1    
   113   57   58 2    
   114   57   59 am   BACKBONE|DICT|INTERRES
   115   59   60 1    
   116   59  125 1    
   117   60   61 1    
   118   60   62 1    
   119   60  126 1    
   120   61  127 1    
   121   61  128 1    
   122   61  129 1    
   123   62   63 2    
   124   62   64 am   BACKBONE|DICT|INTERRES
   125   64   65 1    
   126   64  130 1    
   127   65   66 1    
   128   65   69 1    
   129   65  131 1    
   130   66   67 am   BACKBONE|DICT|INTERRES
   131   66   68 2    
   132   67  132 1    
   133   67  133 1    
   134   69   70 1    
   135   69  134 1    
   136   69  135 1    
   137   70   71 1    
   138   71  136 1    
   139   71  137 1    
@<TRIPOS>SUBSTRUCTURE
     1 UNK         1 GROUP             0       ****    0 ROOT    
