@<TRIPOS>MOLECULE
3R136
137   139    1
SMALL
USER_CHARGES


@<TRIPOS>ATOM
      1 CA         30.7600   25.2052    4.6896 C.3       0 UNK        -0.1979 
      2 C          29.6551   24.4562    3.9670 C.2       0 UNK         0.4864 
      3 O          28.6172   24.1665    4.5655 O.2       0 UNK        -0.5359 
      4 N          29.8639   24.1418    2.6824 N.am      1 UNK        -0.4318 
      5 CA         28.8953   23.4634    1.8173 C.3       1 UNK         0.0824 
      6 C6         29.5753   22.7830    0.6032 C.3       12 UNK        -0.0944 
      7 S7         30.8127   21.5455    1.1214 S.3       12 UNK        -0.2672 
      8 C8         32.3161   22.1299    0.2777 C.3       12 UNK         0.0333 
      9 C9         32.8583   23.4275    0.8637 C.ar      12 UNK        -0.0807 
     10 C10        33.6297   23.4049    2.0300 C.ar      12 UNK        -0.0894 
     11 C11        34.2067   24.5804    2.5192 C.ar      12 UNK        -0.0804 
     12 C12        33.9851   25.7860    1.8487 C.ar      12 UNK        -0.0824 
     13 C13        33.1974   25.8320    0.6948 C.ar      12 UNK        -0.0762 
     14 C14        32.6458   24.6420    0.2030 C.ar      12 UNK        -0.0782 
     15 C15        33.0408   27.1623   -0.0421 C.3       12 UNK         0.0230 
     16 S16        31.4772   27.3509   -0.9618 S.3       12 UNK        -0.2608 
     17 C17        30.3001   27.7611    0.3693 C.3       12 UNK        -0.0989 
     18 CA         28.9836   28.3353   -0.2140 C.3       5 UNK         0.0716 
     19 N          28.3009   27.3587   -1.0625 N.am      5 UNK        -0.4135 
     20 C          27.6392   27.6279   -2.1930 C.2       4 UNK         0.5031 
     21 O          27.4846   28.7653   -2.6397 O.2       4 UNK        -0.5229 
     22 CA         27.0287   26.4315   -2.9346 C.3       4 UNK         0.0329 
     23 CB         28.1293   25.5506   -3.5515 C.3       4 UNK        -0.2001 
     24 N          26.2108   25.6261   -2.0273 N.am      4 UNK        -0.4303 
     25 C          24.9036   25.3740   -2.1815 C.2       3 UNK         0.5044 
     26 O          24.2384   25.7546   -3.1459 O.2       3 UNK        -0.5152 
     27 CA         24.2074   24.5531   -1.0761 C.3       3 UNK         0.0319 
     28 CB         24.1289   23.0717   -1.4791 C.3       3 UNK        -0.2001 
     29 N          24.8578   24.6583    0.2329 N.am      3 UNK        -0.4354 
     30 C          24.9364   25.7827    0.9582 C.2       2 UNK         0.4964 
     31 O          24.3660   26.8290    0.6521 O.2       2 UNK        -0.5047 
     32 CA         25.8070   25.7566    2.2280 C.3       2 UNK         0.0288 
     33 CB         24.9192   25.6440    3.4780 C.3       2 UNK        -0.2113 
     34 N          26.8510   24.7239    2.2944 N.am      2 UNK        -0.4145 
     35 C          27.8028   24.4613    1.3866 C.2       1 UNK         0.5006 
     36 O          27.8592   24.9875    0.2731 O.2       1 UNK        -0.5103 
     37 C          28.0012   28.8151    0.8684 C.2       5 UNK         0.5055 
     38 O          28.1947   28.5444    2.0552 O.2       5 UNK        -0.5220 
     39 N          26.9261   29.4751    0.4205 N.am      6 UNK        -0.4450 
     40 CA         25.8929   30.0659    1.2676 C.3       6 UNK         0.0367 
     41 CB         24.6585   30.3762    0.4055 C.3       6 UNK        -0.1929 
     42 C          26.4008   31.3453    1.9503 C.2       6 UNK         0.5070 
     43 O          27.2141   32.0677    1.3700 O.2       6 UNK        -0.5237 
     44 N          25.8841   31.6135    3.1565 N.am      7 UNK        -0.4739 
     45 CA         26.1257   32.7764    4.0276 C.3       7 UNK         0.0276 
     46 CB         25.7232   34.0946    3.3367 C.3       7 UNK        -0.1927 
     47 C          27.5427   32.8782    4.6260 C.2       7 UNK         0.5013 
     48 O          27.6639   33.2714    5.7873 O.2       7 UNK        -0.5193 
     49 N          28.5786   32.5225    3.8606 N.am      8 UNK        -0.4253 
     50 CA         29.9758   32.5019    4.2821 C.3       8 UNK         0.0242 
     51 CB         30.6144   33.8822    4.0451 C.3       8 UNK        -0.2000 
     52 C          30.7210   31.4100    3.5085 C.2       8 UNK         0.4948 
     53 O          30.3803   31.1316    2.3566 O.2       8 UNK        -0.5275 
     54 N          31.7431   30.8365    4.1482 N.am      9 UNK        -0.4246 
     55 CA         32.6159   29.8013    3.6079 C.3       9 UNK         0.0261 
     56 CB         31.9839   28.4196    3.8520 C.3       9 UNK        -0.1959 
     57 C          33.9669   29.9115    4.3209 C.2       9 UNK         0.5033 
     58 O          34.0025   30.3363    5.4793 O.2       9 UNK        -0.5390 
     59 N          35.0456   29.4955    3.6434 N.am      10 UNK        -0.4215 
     60 CA         36.4254   29.5328    4.1505 C.3       10 UNK         0.0240 
     61 CB         37.3848   29.0694    3.0418 C.3       10 UNK        -0.1982 
     62 C          36.6553   28.7114    5.4339 C.2       10 UNK         0.4970 
     63 O          37.4798   29.1005    6.2616 O.2       10 UNK        -0.4916 
     64 N          35.9133   27.6080    5.5741 N.am      11 UNK        -0.4279 
     65 CA         35.8590   26.7564    6.7705 C.3       11 UNK         0.1003 
     66 C          34.8710   27.2541    7.8686 C.2       11 UNK         0.5709 
     67 N          34.1651   28.3660    7.6927 N.am      11 UNK        -0.7358 
     68 O          34.7578   26.6278    8.9198 O.2       11 UNK        -0.4999 
     69 C69        35.6406   25.2639    6.3936 C.3       12 UNK        -0.0954 
     70 S70        34.2353   24.9873    5.2591 S.3       12 UNK        -0.2268 
     71 C71        35.1209   24.5481    3.7341 C.3       12 UNK         0.0203 
     72 H72        30.3730   26.1329    5.1094 H         1 UNK         0.0888 
     73 H73        31.5809   25.4501    4.0170 H         1 UNK         0.0888 
     74 H74        31.1542   24.5985    5.5042 H         1 UNK         0.0888 
     75 H75        30.7440   24.3779    2.2454 H         1 UNK         0.3017 
     76 H76        28.4079   22.6754    2.3963 H         1 UNK         0.0873 
     77 H77        28.8305   22.2698   -0.0080 H         1 UNK         0.0745 
     78 H78        30.0385   23.5236   -0.0499 H         1 UNK         0.0745 
     79 H79        33.0803   21.3551    0.3550 H         1 UNK         0.0705 
     80 H80        32.1108   22.2419   -0.7882 H         1 UNK         0.0705 
     81 H81        33.8083   22.4659    2.5364 H         1 UNK         0.1334 
     82 H82        34.4539   26.6882    2.2145 H         1 UNK         0.1417 
     83 H83        32.0739   24.6528   -0.7145 H         1 UNK         0.1562 
     84 H84        33.8638   27.2508   -0.7523 H         1 UNK         0.0748 
     85 H85        33.1431   27.9991    0.6502 H         1 UNK         0.0748 
     86 H86        30.7657   28.4959    1.0285 H         1 UNK         0.0940 
     87 H87        30.1128   26.8701    0.9717 H         1 UNK         0.0940 
     88 H88        29.2477   29.2134   -0.8080 H         1 UNK         0.0703 
     89 H89        28.3051   26.4051   -0.7080 H         1 UNK         0.3081 
     90 H90        26.4197   26.8311   -3.7483 H         1 UNK         0.0719 
     91 H91        28.7651   25.0976   -2.7894 H         1 UNK         0.0809 
     92 H92        27.6997   24.7454   -4.1476 H         1 UNK         0.0809 
     93 H93        28.7734   26.1342   -4.2106 H         1 UNK         0.0809 
     94 H94        26.6688   25.2886   -1.1854 H         1 UNK         0.2990 
     95 H95        23.1896   24.9360   -0.9762 H         1 UNK         0.0690 
     96 H96        23.5689   22.4895   -0.7469 H         1 UNK         0.0788 
     97 H97        25.1200   22.6267   -1.5777 H         1 UNK         0.0788 
     98 H98        23.6226   22.9549   -2.4384 H         1 UNK         0.0788 
     99 H99        25.3465   23.8408    0.5668 H         1 UNK         0.2993 
    100 H100       26.3187   26.7183    2.2684 H         1 UNK         0.0949 
    101 H101       24.1516   26.4194    3.4864 H         1 UNK         0.0767 
    102 H102       24.4111   24.6799    3.5246 H         1 UNK         0.0767 
    103 H103       25.5034   25.7612    4.3912 H         1 UNK         0.0767 
    104 H104       26.9728   24.2866    3.2012 H         1 UNK         0.3013 
    105 H105       26.8580   29.6520   -0.5735 H         1 UNK         0.3121 
    106 H106       25.6140   29.3361    2.0311 H         1 UNK         0.0774 
    107 H107       24.8820   31.1091   -0.3710 H         1 UNK         0.0815 
    108 H108       23.8491   30.7822    1.0135 H         1 UNK         0.0815 
    109 H109       24.2772   29.4781   -0.0806 H         1 UNK         0.0815 
    110 H110       25.2409   30.9346    3.5413 H         1 UNK         0.2987 
    111 H111       25.4517   32.6423    4.8757 H         1 UNK         0.0949 
    112 H112       26.3667   34.3253    2.4873 H         1 UNK         0.0806 
    113 H113       24.6944   34.0578    2.9789 H         1 UNK         0.0806 
    114 H114       25.7948   34.9333    4.0306 H         1 UNK         0.0806 
    115 H115       28.4001   32.2020    2.9106 H         1 UNK         0.3010 
    116 H116       30.0256   32.2592    5.3462 H         1 UNK         0.0829 
    117 H117       30.1093   34.6578    4.6212 H         1 UNK         0.0813 
    118 H118       31.6629   33.8868    4.3457 H         1 UNK         0.0813 
    119 H119       30.5737   34.1667    2.9928 H         1 UNK         0.0813 
    120 H120       32.0150   31.1571    5.0704 H         1 UNK         0.3038 
    121 H121       32.7594   29.9651    2.5375 H         1 UNK         0.0769 
    122 H122       31.8878   28.2070    4.9178 H         1 UNK         0.0811 
    123 H123       32.5889   27.6272    3.4163 H         1 UNK         0.0811 
    124 H124       30.9893   28.3491    3.4112 H         1 UNK         0.0811 
    125 H125       34.9287   29.1832    2.6907 H         1 UNK         0.3204 
    126 H126       36.6562   30.5733    4.3892 H         1 UNK         0.0748 
    127 H127       38.4212   29.1084    3.3809 H         1 UNK         0.0771 
    128 H128       37.1821   28.0428    2.7332 H         1 UNK         0.0771 
    129 H129       37.3124   29.7069    2.1604 H         1 UNK         0.0771 
    130 H130       35.2479   27.3758    4.8536 H         1 UNK         0.2980 
    131 H131       36.8380   26.8049    7.2508 H         1 UNK         0.0545 
    132 H132       33.5425   28.6645    8.4258 H         1 UNK         0.3459 
    133 H133       34.2589   28.9333    6.8576 H         1 UNK         0.3459 
    134 H134       36.5501   24.8767    5.9321 H         1 UNK         0.0616 
    135 H135       35.4926   24.6496    7.2834 H         1 UNK         0.0616 
    136 H136       35.9502   25.2408    3.5811 H         1 UNK         0.0634 
    137 H137       35.5655   23.5586    3.8517 H         1 UNK         0.0634 
@<TRIPOS>BOND
     1    1    2 1    
     2    1   72 1    
     3    1   73 1    
     4    1   74 1    
     5    2    3 2    
     6    2    4 am   BACKBONE|DICT|INTERRES
     7    4    5 1    
     8    4   75 1    
     9    5    6 1    
    10    5   35 1    
    11    5   76 1    
    12    6    7 1    
    13    6   77 1    
    14    6   78 1    
    15    7    8 1    
    16    8    9 1    
    17    8   79 1    
    18    8   80 1    
    19    9   10 ar   
    20    9   14 ar   
    21   10   11 ar   
    22   10   81 1    
    23   11   12 ar   
    24   11   71 1    
    25   12   13 ar   
    26   12   82 1    
    27   13   14 ar   
    28   13   15 1    
    29   14   83 1    
    30   15   16 1    
    31   15   84 1    
    32   15   85 1    
    33   16   17 1    
    34   17   18 1    
    35   17   86 1    
    36   17   87 1    
    37   18   19 1    
    38   18   37 1    
    39   18   88 1    
    40   19   20 am   BACKBONE|DICT|INTERRES
    41   19   89 1    
    42   20   21 2    
    43   20   22 1    
    44   22   23 1    
    45   22   24 1    
    46   22   90 1    
    47   23   91 1    
    48   23   92 1    
    49   23   93 1    
    50   24   25 am   BACKBONE|DICT|INTERRES
    51   24   94 1    
    52   25   26 2    
    53   25   27 1    
    54   27   28 1    
    55   27   29 1    
    56   27   95 1    
    57   28   96 1    
    58   28   97 1    
    59   28   98 1    
    60   29   30 am   BACKBONE|DICT|INTERRES
    61   29   99 1    
    62   30   31 2    
    63   30   32 1    
    64   32   33 1    
    65   32   34 1    
    66   32  100 1    
    67   33  101 1    
    68   33  102 1    
    69   33  103 1    
    70   34   35 am   BACKBONE|DICT|INTERRES
    71   34  104 1    
    72   35   36 2    
    73   37   38 2    
    74   37   39 am   BACKBONE|DICT|INTERRES
    75   39   40 1    
    76   39  105 1    
    77   40   41 1    
    78   40   42 1    
    79   40  106 1    
    80   41  107 1    
    81   41  108 1    
    82   41  109 1    
    83   42   43 2    
    84   42   44 am   BACKBONE|DICT|INTERRES
    85   44   45 1    
    86   44  110 1    
    87   45   46 1    
    88   45   47 1    
    89   45  111 1    
    90   46  112 1    
    91   46  113 1    
    92   46  114 1    
    93   47   48 2    
    94   47   49 am   BACKBONE|DICT|INTERRES
    95   49   50 1    
    96   49  115 1    
    97   50   51 1    
    98   50   52 1    
    99   50  116 1    
   100   51  117 1    
   101   51  118 1    
   102   51  119 1    
   103   52   53 2    
   104   52   54 am   BACKBONE|DICT|INTERRES
   105   54   55 1    
   106   54  120 1    
   107   55   56 1    
   108   55   57 1    
   109   55  121 1    
   110   56  122 1    
   111   56  123 1    
   112   56  124 1    
   113   57   58 2    
   114   57   59 am   BACKBONE|DICT|INTERRES
   115   59   60 1    
   116   59  125 1    
   117   60   61 1    
   118   60   62 1    
   119   60  126 1    
   120   61  127 1    
   121   61  128 1    
   122   61  129 1    
   123   62   63 2    
   124   62   64 am   BACKBONE|DICT|INTERRES
   125   64   65 1    
   126   64  130 1    
   127   65   66 1    
   128   65   69 1    
   129   65  131 1    
   130   66   67 am   BACKBONE|DICT|INTERRES
   131   66   68 2    
   132   67  132 1    
   133   67  133 1    
   134   69   70 1    
   135   69  134 1    
   136   69  135 1    
   137   70   71 1    
   138   71  136 1    
   139   71  137 1    
@<TRIPOS>SUBSTRUCTURE
     1 UNK         1 GROUP             0       ****    0 ROOT    
