@<TRIPOS>MOLECULE
3R136
137   139    1
SMALL
USER_CHARGES


@<TRIPOS>ATOM
      1 CA         28.8595   22.3649   -1.7738 C.3       0 UNK        -0.1979 
      2 C          28.5510   22.2639   -0.2882 C.2       0 UNK         0.4864 
      3 O          28.1329   21.2038    0.1805 O.2       0 UNK        -0.5359 
      4 N          28.7270   23.3717    0.4434 N.am      1 UNK        -0.4318 
      5 CA         28.5016   23.5588    1.8830 C.3       1 UNK         0.0824 
      6 C6         29.2964   22.5961    2.8105 C.3       12 UNK        -0.0944 
      7 S7         31.0927   22.5800    2.4902 S.3       12 UNK        -0.2672 
      8 C8         31.7275   23.6494    3.8183 C.3       12 UNK         0.0333 
      9 C9         31.5608   25.1202    3.4726 C.ar      12 UNK        -0.0807 
     10 C10        32.4761   25.7381    2.6163 C.ar      12 UNK        -0.0894 
     11 C11        32.3481   27.0896    2.2865 C.ar      12 UNK        -0.0804 
     12 C12        31.2901   27.8253    2.8352 C.ar      12 UNK        -0.0824 
     13 C13        30.3615   27.2175    3.6868 C.ar      12 UNK        -0.0762 
     14 C14        30.5035   25.8635    4.0046 C.ar      12 UNK        -0.0782 
     15 C15        29.2087   28.0211    4.2721 C.3       12 UNK         0.0230 
     16 S16        27.7384   27.9892    3.2023 S.3       12 UNK        -0.2608 
     17 C17        28.1955   29.1960    1.9144 C.3       12 UNK        -0.0989 
     18 CA         28.4403   28.5170    0.5455 C.3       5 UNK         0.0716 
     19 N          27.1999   27.9972   -0.0276 N.am      5 UNK        -0.4135 
     20 C          27.0543   26.7990   -0.5978 C.2       4 UNK         0.5031 
     21 O          27.9267   25.9261   -0.6296 O.2       4 UNK        -0.5229 
     22 CA         25.7173   26.5564   -1.3050 C.3       4 UNK         0.0329 
     23 CB         25.7920   27.0621   -2.7604 C.3       4 UNK        -0.2001 
     24 N          25.4155   25.1285   -1.2674 N.am      4 UNK        -0.4303 
     25 C          24.2454   24.5642   -1.5913 C.2       3 UNK         0.5044 
     26 O          23.2577   25.1926   -1.9739 O.2       3 UNK        -0.5152 
     27 CA         24.1588   23.0353   -1.4555 C.3       3 UNK         0.0319 
     28 CB         24.8601   22.3423   -2.6351 C.3       3 UNK        -0.2001 
     29 N          24.7243   22.5558   -0.1930 N.am      3 UNK        -0.4354 
     30 C          24.1437   22.7175    1.0062 C.2       2 UNK         0.4964 
     31 O          23.0476   23.2524    1.1743 O.2       2 UNK        -0.5047 
     32 CA         24.9194   22.1948    2.2257 C.3       2 UNK         0.0288 
     33 CB         24.6190   20.7063    2.4651 C.3       2 UNK        -0.2113 
     34 N          26.3620   22.3812    2.0734 N.am      2 UNK        -0.4145 
     35 C          26.9981   23.5512    2.2145 C.2       1 UNK         0.5006 
     36 O          26.4427   24.5922    2.5649 O.2       1 UNK        -0.5103 
     37 C          29.0096   29.5355   -0.4546 C.2       5 UNK         0.5055 
     38 O          28.2538   30.3695   -0.9607 O.2       5 UNK        -0.5220 
     39 N          30.3221   29.4676   -0.7128 N.am      6 UNK        -0.4450 
     40 CA         31.0210   30.3943   -1.6109 C.3       6 UNK         0.0367 
     41 CB         32.3182   29.7406   -2.1150 C.3       6 UNK        -0.1929 
     42 C          31.3205   31.7584   -0.9613 C.2       6 UNK         0.5070 
     43 O          31.4841   32.7430   -1.6829 O.2       6 UNK        -0.5237 
     44 N          31.3934   31.7964    0.3739 N.am      7 UNK        -0.4739 
     45 CA         31.6725   32.9795    1.1831 C.3       7 UNK         0.0276 
     46 CB         33.1871   33.2939    1.1689 C.3       7 UNK        -0.1927 
     47 C          31.0766   32.7646    2.5852 C.2       7 UNK         0.5013 
     48 O          29.9261   32.3332    2.6877 O.2       7 UNK        -0.5193 
     49 N          31.8539   33.0735    3.6316 N.am      8 UNK        -0.4253 
     50 CA         31.5117   32.8929    5.0457 C.3       8 UNK         0.0242 
     51 CB         32.5754   33.6165    5.8916 C.3       8 UNK        -0.2000 
     52 C          31.4106   31.4111    5.4562 C.2       8 UNK         0.4948 
     53 O          31.7680   30.5260    4.6769 O.2       8 UNK        -0.5275 
     54 N          30.9519   31.1684    6.6928 N.am      9 UNK        -0.4246 
     55 CA         30.8378   29.8476    7.3221 C.3       9 UNK         0.0261 
     56 CB         30.3104   30.0127    8.7577 C.3       9 UNK        -0.1959 
     57 C          32.1714   29.0760    7.3072 C.2       9 UNK         0.5033 
     58 O          33.1140   29.4862    7.9867 O.2       9 UNK        -0.5390 
     59 N          32.2181   28.0064    6.4993 N.am      10 UNK        -0.4215 
     60 CA         33.3791   27.1625    6.1840 C.3       10 UNK         0.0240 
     61 CB         33.9309   26.4685    7.4480 C.3       10 UNK        -0.1982 
     62 C          34.4821   27.8701    5.3665 C.2       10 UNK         0.4970 
     63 O          35.5753   27.3141    5.2440 O.2       10 UNK        -0.4916 
     64 N          34.1816   29.0495    4.8023 N.am      11 UNK        -0.4279 
     65 CA         35.0785   29.9000    4.0066 C.3       11 UNK         0.1003 
     66 C          36.3933   30.2871    4.7549 C.2       11 UNK         0.5709 
     67 N          37.5058   30.4937    4.0612 N.am      11 UNK        -0.7358 
     68 O          36.4001   30.4713    5.9707 O.2       11 UNK        -0.4999 
     69 C69        35.2714   29.3472    2.5647 C.3       12 UNK        -0.0954 
     70 S70        33.7351   29.4489    1.5860 S.3       12 UNK        -0.2268 
     71 C71        33.3186   27.7010    1.2783 C.3       12 UNK         0.0203 
     72 H72        28.1730   21.7454   -2.3500 H         1 UNK         0.0888 
     73 H73        28.7742   23.3909   -2.1328 H         1 UNK         0.0888 
     74 H74        29.8733   22.0159   -1.9676 H         1 UNK         0.0888 
     75 H75        28.9561   24.2342   -0.0409 H         1 UNK         0.3017 
     76 H76        28.8512   24.5713    2.0905 H         1 UNK         0.0873 
     77 H77        29.1226   22.8535    3.8568 H         1 UNK         0.0745 
     78 H78        28.9448   21.5693    2.7000 H         1 UNK         0.0745 
     79 H79        31.2392   23.4092    4.7639 H         1 UNK         0.0705 
     80 H80        32.7867   23.4321    3.9641 H         1 UNK         0.0705 
     81 H81        33.2818   25.1547    2.1913 H         1 UNK         0.1334 
     82 H82        31.1823   28.8732    2.5964 H         1 UNK         0.1417 
     83 H83        29.7873   25.3872    4.6606 H         1 UNK         0.1562 
     84 H84        29.5093   29.0546    4.4466 H         1 UNK         0.0748 
     85 H85        28.9319   27.6160    5.2465 H         1 UNK         0.0748 
     86 H86        29.0743   29.7551    2.2387 H         1 UNK         0.0940 
     87 H87        27.3957   29.9357    1.8411 H         1 UNK         0.0940 
     88 H88        29.1647   27.7099    0.6783 H         1 UNK         0.0703 
     89 H89        26.4527   28.6713   -0.1130 H         1 UNK         0.3081 
     90 H90        24.9311   27.0914   -0.7680 H         1 UNK         0.0719 
     91 H91        26.5343   26.5097   -3.3380 H         1 UNK         0.0809 
     92 H92        24.8340   26.9684   -3.2714 H         1 UNK         0.0809 
     93 H93        26.0696   28.1165   -2.7968 H         1 UNK         0.0809 
     94 H94        26.1796   24.5535   -0.9393 H         1 UNK         0.2990 
     95 H95        23.1029   22.7564   -1.4824 H         1 UNK         0.0690 
     96 H96        24.7697   21.2577   -2.5705 H         1 UNK         0.0788 
     97 H97        25.9204   22.5901   -2.6814 H         1 UNK         0.0788 
     98 H98        24.4150   22.6472   -3.5833 H         1 UNK         0.0788 
     99 H99        25.6130   22.0787   -0.2368 H         1 UNK         0.2993 
    100 H100       24.5846   22.7577    3.1001 H         1 UNK         0.0949 
    101 H101       24.9466   20.0865    1.6293 H         1 UNK         0.0767 
    102 H102       25.1142   20.3430    3.3659 H         1 UNK         0.0767 
    103 H103       23.5485   20.5406    2.5953 H         1 UNK         0.0767 
    104 H104       26.8994   21.6046    1.6988 H         1 UNK         0.3013 
    105 H105       30.8784   28.7475   -0.2758 H         1 UNK         0.3121 
    106 H106       30.3850   30.5811   -2.4794 H         1 UNK         0.0774 
    107 H107       33.0261   29.5621   -1.3063 H         1 UNK         0.0815 
    108 H108       32.8171   30.3829   -2.8421 H         1 UNK         0.0815 
    109 H109       32.1203   28.7890   -2.6084 H         1 UNK         0.0815 
    110 H110       31.2074   30.9526    0.8965 H         1 UNK         0.2987 
    111 H111       31.1392   33.8292    0.7514 H         1 UNK         0.0949 
    112 H112       33.7731   32.4952    1.6250 H         1 UNK         0.0806 
    113 H113       33.5533   33.4255    0.1507 H         1 UNK         0.0806 
    114 H114       33.4078   34.2210    1.6993 H         1 UNK         0.0806 
    115 H115       32.7911   33.3929    3.4392 H         1 UNK         0.3010 
    116 H116       30.5389   33.3576    5.2199 H         1 UNK         0.0829 
    117 H117       32.3320   33.5850    6.9543 H         1 UNK         0.0813 
    118 H118       33.5608   33.1635    5.7716 H         1 UNK         0.0813 
    119 H119       32.6541   34.6685    5.6164 H         1 UNK         0.0813 
    120 H120       30.7052   31.9565    7.2735 H         1 UNK         0.3038 
    121 H121       30.0934   29.2804    6.7628 H         1 UNK         0.0769 
    122 H122       30.9807   30.6198    9.3677 H         1 UNK         0.0811 
    123 H123       30.2112   29.0442    9.2500 H         1 UNK         0.0811 
    124 H124       29.3267   30.4825    8.7695 H         1 UNK         0.0811 
    125 H125       31.3955   27.8005    5.9510 H         1 UNK         0.3204 
    126 H126       33.0007   26.3762    5.5320 H         1 UNK         0.0748 
    127 H127       34.6717   25.7117    7.1870 H         1 UNK         0.0771 
    128 H128       34.4164   27.1761    8.1205 H         1 UNK         0.0771 
    129 H129       33.1390   25.9651    8.0026 H         1 UNK         0.0771 
    130 H130       33.2457   29.4291    4.9198 H         1 UNK         0.2980 
    131 H131       34.5515   30.8505    3.9168 H         1 UNK         0.0545 
    132 H132       38.3430   30.7674    4.5512 H         1 UNK         0.3459 
    133 H133       37.5275   30.3705    3.0616 H         1 UNK         0.3459 
    134 H134       36.0053   29.9331    2.0111 H         1 UNK         0.0616 
    135 H135       35.6513   28.3252    2.5880 H         1 UNK         0.0616 
    136 H136       32.8589   27.6312    0.2925 H         1 UNK         0.0634 
    137 H137       34.2374   27.1160    1.2205 H         1 UNK         0.0634 
@<TRIPOS>BOND
     1    1    2 1    
     2    1   72 1    
     3    1   73 1    
     4    1   74 1    
     5    2    3 2    
     6    2    4 am   BACKBONE|DICT|INTERRES
     7    4    5 1    
     8    4   75 1    
     9    5    6 1    
    10    5   35 1    
    11    5   76 1    
    12    6    7 1    
    13    6   77 1    
    14    6   78 1    
    15    7    8 1    
    16    8    9 1    
    17    8   79 1    
    18    8   80 1    
    19    9   10 ar   
    20    9   14 ar   
    21   10   11 ar   
    22   10   81 1    
    23   11   12 ar   
    24   11   71 1    
    25   12   13 ar   
    26   12   82 1    
    27   13   14 ar   
    28   13   15 1    
    29   14   83 1    
    30   15   16 1    
    31   15   84 1    
    32   15   85 1    
    33   16   17 1    
    34   17   18 1    
    35   17   86 1    
    36   17   87 1    
    37   18   19 1    
    38   18   37 1    
    39   18   88 1    
    40   19   20 am   BACKBONE|DICT|INTERRES
    41   19   89 1    
    42   20   21 2    
    43   20   22 1    
    44   22   23 1    
    45   22   24 1    
    46   22   90 1    
    47   23   91 1    
    48   23   92 1    
    49   23   93 1    
    50   24   25 am   BACKBONE|DICT|INTERRES
    51   24   94 1    
    52   25   26 2    
    53   25   27 1    
    54   27   28 1    
    55   27   29 1    
    56   27   95 1    
    57   28   96 1    
    58   28   97 1    
    59   28   98 1    
    60   29   30 am   BACKBONE|DICT|INTERRES
    61   29   99 1    
    62   30   31 2    
    63   30   32 1    
    64   32   33 1    
    65   32   34 1    
    66   32  100 1    
    67   33  101 1    
    68   33  102 1    
    69   33  103 1    
    70   34   35 am   BACKBONE|DICT|INTERRES
    71   34  104 1    
    72   35   36 2    
    73   37   38 2    
    74   37   39 am   BACKBONE|DICT|INTERRES
    75   39   40 1    
    76   39  105 1    
    77   40   41 1    
    78   40   42 1    
    79   40  106 1    
    80   41  107 1    
    81   41  108 1    
    82   41  109 1    
    83   42   43 2    
    84   42   44 am   BACKBONE|DICT|INTERRES
    85   44   45 1    
    86   44  110 1    
    87   45   46 1    
    88   45   47 1    
    89   45  111 1    
    90   46  112 1    
    91   46  113 1    
    92   46  114 1    
    93   47   48 2    
    94   47   49 am   BACKBONE|DICT|INTERRES
    95   49   50 1    
    96   49  115 1    
    97   50   51 1    
    98   50   52 1    
    99   50  116 1    
   100   51  117 1    
   101   51  118 1    
   102   51  119 1    
   103   52   53 2    
   104   52   54 am   BACKBONE|DICT|INTERRES
   105   54   55 1    
   106   54  120 1    
   107   55   56 1    
   108   55   57 1    
   109   55  121 1    
   110   56  122 1    
   111   56  123 1    
   112   56  124 1    
   113   57   58 2    
   114   57   59 am   BACKBONE|DICT|INTERRES
   115   59   60 1    
   116   59  125 1    
   117   60   61 1    
   118   60   62 1    
   119   60  126 1    
   120   61  127 1    
   121   61  128 1    
   122   61  129 1    
   123   62   63 2    
   124   62   64 am   BACKBONE|DICT|INTERRES
   125   64   65 1    
   126   64  130 1    
   127   65   66 1    
   128   65   69 1    
   129   65  131 1    
   130   66   67 am   BACKBONE|DICT|INTERRES
   131   66   68 2    
   132   67  132 1    
   133   67  133 1    
   134   69   70 1    
   135   69  134 1    
   136   69  135 1    
   137   70   71 1    
   138   71  136 1    
   139   71  137 1    
@<TRIPOS>SUBSTRUCTURE
     1 UNK         1 GROUP             0       ****    0 ROOT    
