@<TRIPOS>MOLECULE
3R136
137   139    1
SMALL
USER_CHARGES


@<TRIPOS>ATOM
      1 CA         25.8543   23.0130    3.1729 C.3       0 UNK        -0.1979 
      2 C          26.6283   22.0290    2.3086 C.2       0 UNK         0.4864 
      3 O          26.2838   20.8472    2.2681 O.2       0 UNK        -0.5359 
      4 N          27.6708   22.5076    1.6182 N.am      1 UNK        -0.4318 
      5 CA         28.4915   21.7289    0.6824 C.3       1 UNK         0.0824 
      6 C6         29.8684   22.3950    0.4283 C.3       12 UNK        -0.0944 
      7 S7         29.7685   24.1487   -0.0857 S.3       12 UNK        -0.2672 
      8 C8         31.4632   24.7162    0.2936 C.3       12 UNK         0.0333 
      9 C9         31.7932   24.9416    1.7728 C.ar      12 UNK        -0.0807 
     10 C10        33.1028   25.3025    2.1043 C.ar      12 UNK        -0.0894 
     11 C11        33.4686   25.5508    3.4306 C.ar      12 UNK        -0.0804 
     12 C12        32.5058   25.4365    4.4374 C.ar      12 UNK        -0.0824 
     13 C13        31.1901   25.0756    4.1329 C.ar      12 UNK        -0.0762 
     14 C14        30.8486   24.8145    2.8010 C.ar      12 UNK        -0.0782 
     15 C15        30.1736   24.9353    5.2672 C.3       12 UNK         0.0230 
     16 S16        28.4576   25.3911    4.8325 S.3       12 UNK        -0.2608 
     17 C17        28.6193   27.1548    4.3874 C.3       12 UNK        -0.0989 
     18 CA         28.3289   27.4041    2.8835 C.3       5 UNK         0.0716 
     19 N          26.9926   26.9585    2.4676 N.am      5 UNK        -0.4135 
     20 C          25.8094   27.4662    2.8371 C.2       4 UNK         0.5031 
     21 O          25.6824   28.4353    3.5875 O.2       4 UNK        -0.5229 
     22 CA         24.5598   26.7763    2.2448 C.3       4 UNK         0.0329 
     23 CB         23.2475   27.4575    2.6768 C.3       4 UNK        -0.2001 
     24 N          24.5868   26.6910    0.7788 N.am      4 UNK        -0.4303 
     25 C          25.3543   25.8640    0.0588 C.2       3 UNK         0.5044 
     26 O          26.1733   25.0830    0.5586 O.2       3 UNK        -0.5152 
     27 CA         25.2295   25.9634   -1.4711 C.3       3 UNK         0.0319 
     28 CB         25.9970   27.1893   -1.9933 C.3       3 UNK        -0.2001 
     29 N          25.7969   24.7605   -2.0743 N.am      3 UNK        -0.4354 
     30 C          25.1578   23.5860   -2.1575 C.2       2 UNK         0.4964 
     31 O          23.9402   23.4429   -2.0454 O.2       2 UNK        -0.5047 
     32 CA         26.0663   22.3607   -2.2580 C.3       2 UNK         0.0288 
     33 CB         26.8925   22.3603   -3.5614 C.3       2 UNK        -0.2113 
     34 N          26.9168   22.3891   -1.0700 N.am      2 UNK        -0.4145 
     35 C          27.7489   21.4354   -0.6393 C.2       1 UNK         0.5006 
     36 O          27.9349   20.3649   -1.2209 O.2       1 UNK        -0.5103 
     37 C          28.6348   28.8491    2.4310 C.2       5 UNK         0.5055 
     38 O          29.3166   29.5965    3.1362 O.2       5 UNK        -0.5220 
     39 N          28.1472   29.2033    1.2320 N.am      6 UNK        -0.4450 
     40 CA         28.2915   30.5181    0.5985 C.3       6 UNK         0.0367 
     41 CB         27.3702   30.5806   -0.6308 C.3       6 UNK        -0.1929 
     42 C          29.7359   30.8859    0.2085 C.2       6 UNK         0.5070 
     43 O          29.9961   32.0533   -0.0838 O.2       6 UNK        -0.5237 
     44 N          30.6470   29.9028    0.2145 N.am      7 UNK        -0.4739 
     45 CA         32.0876   30.0551    0.0130 C.3       7 UNK         0.0276 
     46 CB         32.7173   28.6545   -0.1103 C.3       7 UNK        -0.1927 
     47 C          32.7259   30.8663    1.1553 C.2       7 UNK         0.5013 
     48 O          33.1832   30.2826    2.1372 O.2       7 UNK        -0.5193 
     49 N          32.6940   32.2000    1.0235 N.am      8 UNK        -0.4253 
     50 CA         33.2414   33.2040    1.9465 C.3       8 UNK         0.0242 
     51 CB         34.7846   33.1773    1.9072 C.3       8 UNK        -0.2000 
     52 C          32.6816   33.1158    3.3833 C.2       8 UNK         0.4948 
     53 O          33.3979   33.4457    4.3290 O.2       8 UNK        -0.5275 
     54 N          31.4159   32.6827    3.5111 N.am      9 UNK        -0.4246 
     55 CA         30.6854   32.4131    4.7569 C.3       9 UNK         0.0261 
     56 CB         30.4311   33.7164    5.5451 C.3       9 UNK        -0.1959 
     57 C          31.3805   31.3224    5.5958 C.2       9 UNK         0.5033 
     58 O          31.8878   31.6028    6.6839 O.2       9 UNK        -0.5390 
     59 N          31.3884   30.0992    5.0485 N.am      10 UNK        -0.4215 
     60 CA         32.0222   28.8863    5.5797 C.3       10 UNK         0.0240 
     61 CB         31.3502   28.4365    6.8963 C.3       10 UNK        -0.1982 
     62 C          33.5575   28.9828    5.6857 C.2       10 UNK         0.4970 
     63 O          34.1381   28.4847    6.6528 O.2       10 UNK        -0.4916 
     64 N          34.1811   29.5770    4.6617 N.am      11 UNK        -0.4279 
     65 CA         35.6325   29.7053    4.4631 C.3       11 UNK         0.1003 
     66 C          36.3535   30.5783    5.5360 C.2       11 UNK         0.5709 
     67 N          37.6807   30.6045    5.5394 N.am      11 UNK        -0.7358 
     68 O          35.7365   31.2722    6.3415 O.2       11 UNK        -0.4999 
     69 C69        36.3271   28.3330    4.2091 C.3       12 UNK        -0.0954 
     70 S70        35.5212   27.3635    2.8840 S.3       12 UNK        -0.2268 
     71 C71        34.9089   25.9007    3.7867 C.3       12 UNK         0.0203 
     72 H72        25.8196   22.6635    4.2043 H         1 UNK         0.0888 
     73 H73        26.3107   24.0019    3.1677 H         1 UNK         0.0888 
     74 H74        24.8326   23.1093    2.8070 H         1 UNK         0.0888 
     75 H75        27.8760   23.4961    1.6520 H         1 UNK         0.3017 
     76 H76        28.6847   20.7586    1.1456 H         1 UNK         0.0873 
     77 H77        30.4353   21.8407   -0.3224 H         1 UNK         0.0745 
     78 H78        30.4617   22.3344    1.3417 H         1 UNK         0.0745 
     79 H79        31.6228   25.6560   -0.2362 H         1 UNK         0.0705 
     80 H80        32.1717   24.0023   -0.1292 H         1 UNK         0.0705 
     81 H81        33.8464   25.3936    1.3239 H         1 UNK         0.1334 
     82 H82        32.7850   25.6189    5.4665 H         1 UNK         0.1417 
     83 H83        29.8369   24.5169    2.5754 H         1 UNK         0.1562 
     84 H84        30.4769   25.5367    6.1252 H         1 UNK         0.0748 
     85 H85        30.1782   23.8979    5.6037 H         1 UNK         0.0748 
     86 H86        29.6254   27.4852    4.6389 H         1 UNK         0.0940 
     87 H87        27.9443   27.7398    5.0143 H         1 UNK         0.0940 
     88 H88        29.0261   26.7936    2.3109 H         1 UNK         0.0703 
     89 H89        26.9610   26.1727    1.8224 H         1 UNK         0.3081 
     90 H90        24.5450   25.7602    2.6438 H         1 UNK         0.0719 
     91 H91        23.1872   28.4846    2.3145 H         1 UNK         0.0809 
     92 H92        22.3774   26.9171    2.3036 H         1 UNK         0.0809 
     93 H93        23.1621   27.4895    3.7640 H         1 UNK         0.0809 
     94 H94        23.9712   27.3234    0.2874 H         1 UNK         0.2990 
     95 H95        24.1751   26.0523   -1.7419 H         1 UNK         0.0690 
     96 H96        25.9455   27.2527   -3.0805 H         1 UNK         0.0788 
     97 H97        27.0504   27.1599   -1.7110 H         1 UNK         0.0788 
     98 H98        25.5764   28.1150   -1.5989 H         1 UNK         0.0788 
     99 H99        26.8027   24.7530   -2.1659 H         1 UNK         0.2993 
    100 H100       25.4433   21.4645   -2.2241 H         1 UNK         0.0949 
    101 H101       27.4480   21.4300   -3.6795 H         1 UNK         0.0767 
    102 H102       26.2441   22.4574   -4.4332 H         1 UNK         0.0767 
    103 H103       27.6111   23.1798   -3.5925 H         1 UNK         0.0767 
    104 H104       26.8059   23.2111   -0.4849 H         1 UNK         0.3013 
    105 H105       27.6054   28.5202    0.7247 H         1 UNK         0.3121 
    106 H106       27.9556   31.2687    1.3171 H         1 UNK         0.0774 
    107 H107       27.4134   31.5639   -1.1013 H         1 UNK         0.0815 
    108 H108       27.6544   29.8473   -1.3864 H         1 UNK         0.0815 
    109 H109       26.3297   30.4017   -0.3588 H         1 UNK         0.0815 
    110 H110       30.3321   28.9827    0.4811 H         1 UNK         0.2987 
    111 H111       32.2560   30.5885   -0.9251 H         1 UNK         0.0949 
    112 H112       33.7978   28.7238   -0.2437 H         1 UNK         0.0806 
    113 H113       32.5416   28.0499    0.7810 H         1 UNK         0.0806 
    114 H114       32.3190   28.1130   -0.9683 H         1 UNK         0.0806 
    115 H115       32.1831   32.5691    0.2301 H         1 UNK         0.3010 
    116 H116       32.9205   34.1741    1.5639 H         1 UNK         0.0829 
    117 H117       35.1576   33.2779    0.8880 H         1 UNK         0.0813 
    118 H118       35.2086   33.9984    2.4866 H         1 UNK         0.0813 
    119 H119       35.1814   32.2498    2.3188 H         1 UNK         0.0813 
    120 H120       30.9307   32.4321    2.6607 H         1 UNK         0.3038 
    121 H121       29.7113   32.0151    4.4672 H         1 UNK         0.0769 
    122 H122       29.8211   33.5214    6.4279 H         1 UNK         0.0811 
    123 H123       29.8996   34.4493    4.9384 H         1 UNK         0.0811 
    124 H124       31.3584   34.1753    5.8892 H         1 UNK         0.0811 
    125 H125       30.8788   29.9771    4.1754 H         1 UNK         0.3204 
    126 H126       31.8363   28.1152    4.8329 H         1 UNK         0.0748 
    127 H127       31.7151   27.4569    7.2064 H         1 UNK         0.0771 
    128 H128       31.5573   29.1301    7.7117 H         1 UNK         0.0771 
    129 H129       30.2684   28.3612    6.7904 H         1 UNK         0.0771 
    130 H130       33.6261   29.9210    3.8810 H         1 UNK         0.2980 
    131 H131       35.7228   30.2813    3.5426 H         1 UNK         0.0545 
    132 H132       38.1548   31.1792    6.2184 H         1 UNK         0.3459 
    133 H133       38.2168   30.0650    4.8785 H         1 UNK         0.3459 
    134 H134       37.3607   28.4829    3.8951 H         1 UNK         0.0616 
    135 H135       36.3793   27.7554    5.1325 H         1 UNK         0.0616 
    136 H136       34.9958   26.0576    4.8622 H         1 UNK         0.0634 
    137 H137       35.5503   25.0507    3.5509 H         1 UNK         0.0634 
@<TRIPOS>BOND
     1    1    2 1    
     2    1   72 1    
     3    1   73 1    
     4    1   74 1    
     5    2    3 2    
     6    2    4 am   BACKBONE|DICT|INTERRES
     7    4    5 1    
     8    4   75 1    
     9    5    6 1    
    10    5   35 1    
    11    5   76 1    
    12    6    7 1    
    13    6   77 1    
    14    6   78 1    
    15    7    8 1    
    16    8    9 1    
    17    8   79 1    
    18    8   80 1    
    19    9   10 ar   
    20    9   14 ar   
    21   10   11 ar   
    22   10   81 1    
    23   11   12 ar   
    24   11   71 1    
    25   12   13 ar   
    26   12   82 1    
    27   13   14 ar   
    28   13   15 1    
    29   14   83 1    
    30   15   16 1    
    31   15   84 1    
    32   15   85 1    
    33   16   17 1    
    34   17   18 1    
    35   17   86 1    
    36   17   87 1    
    37   18   19 1    
    38   18   37 1    
    39   18   88 1    
    40   19   20 am   BACKBONE|DICT|INTERRES
    41   19   89 1    
    42   20   21 2    
    43   20   22 1    
    44   22   23 1    
    45   22   24 1    
    46   22   90 1    
    47   23   91 1    
    48   23   92 1    
    49   23   93 1    
    50   24   25 am   BACKBONE|DICT|INTERRES
    51   24   94 1    
    52   25   26 2    
    53   25   27 1    
    54   27   28 1    
    55   27   29 1    
    56   27   95 1    
    57   28   96 1    
    58   28   97 1    
    59   28   98 1    
    60   29   30 am   BACKBONE|DICT|INTERRES
    61   29   99 1    
    62   30   31 2    
    63   30   32 1    
    64   32   33 1    
    65   32   34 1    
    66   32  100 1    
    67   33  101 1    
    68   33  102 1    
    69   33  103 1    
    70   34   35 am   BACKBONE|DICT|INTERRES
    71   34  104 1    
    72   35   36 2    
    73   37   38 2    
    74   37   39 am   BACKBONE|DICT|INTERRES
    75   39   40 1    
    76   39  105 1    
    77   40   41 1    
    78   40   42 1    
    79   40  106 1    
    80   41  107 1    
    81   41  108 1    
    82   41  109 1    
    83   42   43 2    
    84   42   44 am   BACKBONE|DICT|INTERRES
    85   44   45 1    
    86   44  110 1    
    87   45   46 1    
    88   45   47 1    
    89   45  111 1    
    90   46  112 1    
    91   46  113 1    
    92   46  114 1    
    93   47   48 2    
    94   47   49 am   BACKBONE|DICT|INTERRES
    95   49   50 1    
    96   49  115 1    
    97   50   51 1    
    98   50   52 1    
    99   50  116 1    
   100   51  117 1    
   101   51  118 1    
   102   51  119 1    
   103   52   53 2    
   104   52   54 am   BACKBONE|DICT|INTERRES
   105   54   55 1    
   106   54  120 1    
   107   55   56 1    
   108   55   57 1    
   109   55  121 1    
   110   56  122 1    
   111   56  123 1    
   112   56  124 1    
   113   57   58 2    
   114   57   59 am   BACKBONE|DICT|INTERRES
   115   59   60 1    
   116   59  125 1    
   117   60   61 1    
   118   60   62 1    
   119   60  126 1    
   120   61  127 1    
   121   61  128 1    
   122   61  129 1    
   123   62   63 2    
   124   62   64 am   BACKBONE|DICT|INTERRES
   125   64   65 1    
   126   64  130 1    
   127   65   66 1    
   128   65   69 1    
   129   65  131 1    
   130   66   67 am   BACKBONE|DICT|INTERRES
   131   66   68 2    
   132   67  132 1    
   133   67  133 1    
   134   69   70 1    
   135   69  134 1    
   136   69  135 1    
   137   70   71 1    
   138   71  136 1    
   139   71  137 1    
@<TRIPOS>SUBSTRUCTURE
     1 UNK         1 GROUP             0       ****    0 ROOT    
