@<TRIPOS>MOLECULE
3R136
137   139    1
SMALL
USER_CHARGES


@<TRIPOS>ATOM
      1 CA         30.6387   26.5747   -1.5754 C.3       0 UNK        -0.1979 
      2 C          29.6642   25.8159   -0.6893 C.2       0 UNK         0.4864 
      3 O          28.5262   26.2565   -0.5230 O.2       0 UNK        -0.5359 
      4 N          30.0959   24.6799   -0.1232 N.am      1 UNK        -0.4318 
      5 CA         29.3142   23.8158    0.7737 C.3       1 UNK         0.0824 
      6 C6         30.1242   22.5946    1.2855 C.3       12 UNK        -0.0944 
      7 S7         31.7841   23.0154    1.9151 S.3       12 UNK        -0.2672 
      8 C8         31.5651   22.8522    3.7134 C.3       12 UNK         0.0333 
      9 C9         30.8571   24.0604    4.3052 C.ar      12 UNK        -0.0807 
     10 C10        31.5263   25.2849    4.3791 C.ar      12 UNK        -0.0894 
     11 C11        30.9058   26.3991    4.9481 C.ar      12 UNK        -0.0804 
     12 C12        29.6100   26.2817    5.4527 C.ar      12 UNK        -0.0824 
     13 C13        28.9223   25.0677    5.3679 C.ar      12 UNK        -0.0762 
     14 C14        29.5506   23.9576    4.7936 C.ar      12 UNK        -0.0782 
     15 C15        27.5043   24.9564    5.9070 C.3       12 UNK         0.0230 
     16 S16        26.2592   25.1041    4.5869 S.3       12 UNK        -0.2608 
     17 C17        26.4692   26.8354    4.0372 C.3       12 UNK        -0.0989 
     18 CA         26.9481   26.9255    2.5601 C.3       5 UNK         0.0716 
     19 N          26.0114   26.2817    1.6270 N.am      5 UNK        -0.4135 
     20 C          24.7498   26.6679    1.3797 C.2       4 UNK         0.5031 
     21 O          24.2242   27.6755    1.8580 O.2       4 UNK        -0.5229 
     22 CA         23.9372   25.7479    0.4522 C.3       4 UNK         0.0329 
     23 CB         22.5074   26.2609    0.1730 C.3       4 UNK        -0.2001 
     24 N          24.6491   25.4527   -0.7928 N.am      4 UNK        -0.4303 
     25 C          25.0068   26.3046   -1.7662 C.2       3 UNK         0.5044 
     26 O          24.7268   27.5035   -1.7647 O.2       3 UNK        -0.5152 
     27 CA         25.8137   25.7130   -2.9427 C.3       3 UNK         0.0319 
     28 CB         26.7612   26.7431   -3.5844 C.3       3 UNK        -0.2001 
     29 N          26.5955   24.5421   -2.5373 N.am      3 UNK        -0.4354 
     30 C          26.1524   23.2772   -2.5259 C.2       2 UNK         0.4964 
     31 O          25.0410   22.9437   -2.9361 O.2       2 UNK        -0.5047 
     32 CA         27.0755   22.2052   -1.9197 C.3       2 UNK         0.0288 
     33 CB         27.6878   21.3344   -3.0293 C.3       2 UNK        -0.2113 
     34 N          28.1557   22.7422   -1.0868 N.am      2 UNK        -0.4145 
     35 C          28.0081   23.3374    0.1075 C.2       1 UNK         0.5006 
     36 O          26.9205   23.5592    0.6444 O.2       1 UNK        -0.5103 
     37 C          27.2851   28.3699    2.1205 C.2       5 UNK         0.5055 
     38 O          27.2169   29.3000    2.9268 O.2       5 UNK        -0.5220 
     39 N          27.6214   28.5339    0.8336 N.am      6 UNK        -0.4450 
     40 CA         27.8650   29.8275    0.1893 C.3       6 UNK         0.0367 
     41 CB         27.7160   29.6674   -1.3313 C.3       6 UNK        -0.1929 
     42 C          29.2352   30.4421    0.5179 C.2       6 UNK         0.5070 
     43 O          29.3974   31.6545    0.3728 O.2       6 UNK        -0.5237 
     44 N          30.2022   29.6184    0.9446 N.am      7 UNK        -0.4739 
     45 CA         31.5805   30.0123    1.2619 C.3       7 UNK         0.0276 
     46 CB         32.4869   28.7700    1.1573 C.3       7 UNK        -0.1927 
     47 C          31.6987   30.7251    2.6256 C.2       7 UNK         0.5013 
     48 O          32.4763   30.2954    3.4783 O.2       7 UNK        -0.5193 
     49 N          30.9099   31.7905    2.8182 N.am      8 UNK        -0.4253 
     50 CA         30.7970   32.5804    4.0473 C.3       8 UNK         0.0242 
     51 CB         29.8305   33.7524    3.8088 C.3       8 UNK        -0.2000 
     52 C          32.1600   33.0810    4.5574 C.2       8 UNK         0.4948 
     53 O          32.8134   33.8696    3.8713 O.2       8 UNK        -0.5275 
     54 N          32.5603   32.5765    5.7339 N.am      9 UNK        -0.4246 
     55 CA         33.8446   32.7969    6.4127 C.3       9 UNK         0.0261 
     56 CB         34.0176   34.2801    6.8069 C.3       9 UNK        -0.1959 
     57 C          35.0705   32.2370    5.6569 C.2       9 UNK         0.5033 
     58 O          36.1942   32.6527    5.9465 O.2       9 UNK        -0.5390 
     59 N          34.8538   31.2913    4.7330 N.am      10 UNK        -0.4215 
     60 CA         35.8862   30.6249    3.9375 C.3       10 UNK         0.0240 
     61 CB         35.8952   31.2245    2.5179 C.3       10 UNK        -0.1982 
     62 C          35.6668   29.1019    3.9413 C.2       10 UNK         0.4970 
     63 O          35.9127   28.4443    2.9287 O.2       10 UNK        -0.4916 
     64 N          35.1984   28.5662    5.0768 N.am      11 UNK        -0.4279 
     65 CA         34.8647   27.1439    5.2617 C.3       11 UNK         0.1003 
     66 C          36.0861   26.1822    5.3420 C.2       11 UNK         0.5709 
     67 N          37.3121   26.6707    5.4885 N.am      11 UNK        -0.7358 
     68 O          35.9160   24.9679    5.2640 O.2       11 UNK        -0.4999 
     69 C69        33.9058   26.9161    6.4655 C.3       12 UNK        -0.0954 
     70 S70        32.4749   28.0499    6.5554 S.3       12 UNK        -0.2268 
     71 C71        31.6137   27.7416    4.9832 C.3       12 UNK         0.0203 
     72 H72        30.6434   27.6312   -1.3112 H         1 UNK         0.0888 
     73 H73        30.3376   26.4886   -2.6189 H         1 UNK         0.0888 
     74 H74        31.6559   26.1959   -1.4789 H         1 UNK         0.0888 
     75 H75        31.0498   24.3825   -0.2741 H         1 UNK         0.3017 
     76 H76        29.0393   24.4209    1.6397 H         1 UNK         0.0873 
     77 H77        29.5627   22.0710    2.0616 H         1 UNK         0.0745 
     78 H78        30.2750   21.8654    0.4871 H         1 UNK         0.0745 
     79 H79        31.0337   21.9273    3.9430 H         1 UNK         0.0705 
     80 H80        32.5487   22.7582    4.1762 H         1 UNK         0.0705 
     81 H81        32.5300   25.3663    3.9864 H         1 UNK         0.1334 
     82 H82        29.1358   27.1429    5.9028 H         1 UNK         0.1417 
     83 H83        29.0225   23.0156    4.7332 H         1 UNK         0.1562 
     84 H84        27.3183   25.7158    6.6683 H         1 UNK         0.0748 
     85 H85        27.3776   23.9933    6.4037 H         1 UNK         0.0748 
     86 H86        27.1646   27.3478    4.7009 H         1 UNK         0.0940 
     87 H87        25.5174   27.3530    4.1669 H         1 UNK         0.0940 
     88 H88        27.8848   26.3716    2.4852 H         1 UNK         0.0703 
     89 H89        26.3466   25.4315    1.1850 H         1 UNK         0.3081 
     90 H90        23.8431   24.7971    0.9794 H         1 UNK         0.0719 
     91 H91        22.5112   27.2387   -0.3096 H         1 UNK         0.0809 
     92 H92        21.9566   25.5724   -0.4676 H         1 UNK         0.0809 
     93 H93        21.9432   26.3617    1.1009 H         1 UNK         0.0809 
     94 H94        24.9508   24.4938   -0.8955 H         1 UNK         0.2990 
     95 H95        25.0873   25.4164   -3.7021 H         1 UNK         0.0690 
     96 H96        27.2862   26.3181   -4.4398 H         1 UNK         0.0788 
     97 H97        27.5091   27.0953   -2.8754 H         1 UNK         0.0788 
     98 H98        26.2140   27.6152   -3.9445 H         1 UNK         0.0788 
     99 H99        27.4950   24.7390   -2.1205 H         1 UNK         0.2993 
    100 H100       26.4527   21.5685   -1.2873 H         1 UNK         0.0949 
    101 H101       26.9099   20.8873   -3.6502 H         1 UNK         0.0767 
    102 H102       28.3360   21.9149   -3.6872 H         1 UNK         0.0767 
    103 H103       28.2758   20.5158   -2.6132 H         1 UNK         0.0767 
    104 H104       29.0918   22.6419   -1.4524 H         1 UNK         0.3013 
    105 H105       27.7211   27.7040    0.2493 H         1 UNK         0.3121 
    106 H106       27.1018   30.5291    0.5329 H         1 UNK         0.0774 
    107 H107       28.4571   28.9788   -1.7375 H         1 UNK         0.0815 
    108 H108       27.8462   30.6234   -1.8402 H         1 UNK         0.0815 
    109 H109       26.7268   29.2948   -1.5957 H         1 UNK         0.0815 
    110 H110       29.9659   28.6463    1.0756 H         1 UNK         0.2987 
    111 H111       31.9199   30.7284    0.5102 H         1 UNK         0.0949 
    112 H112       32.1586   27.9702    1.8208 H         1 UNK         0.0806 
    113 H113       32.5028   28.3764    0.1417 H         1 UNK         0.0806 
    114 H114       33.5187   29.0088    1.4190 H         1 UNK         0.0806 
    115 H115       30.3094   32.0571    2.0435 H         1 UNK         0.3010 
    116 H116       30.3543   31.9294    4.8040 H         1 UNK         0.0829 
    117 H117       28.8388   33.3986    3.5259 H         1 UNK         0.0813 
    118 H118       29.7149   34.3536    4.7117 H         1 UNK         0.0813 
    119 H119       30.1880   34.4148    3.0192 H         1 UNK         0.0813 
    120 H120       31.9472   31.9148    6.1910 H         1 UNK         0.3038 
    121 H121       33.7889   32.2222    7.3384 H         1 UNK         0.0769 
    122 H122       34.1649   34.9171    5.9344 H         1 UNK         0.0811 
    123 H123       34.8844   34.4153    7.4550 H         1 UNK         0.0811 
    124 H124       33.1491   34.6509    7.3511 H         1 UNK         0.0811 
    125 H125       33.8991   31.0002    4.5242 H         1 UNK         0.3204 
    126 H126       36.8696   30.7881    4.3827 H         1 UNK         0.0748 
    127 H127       36.6837   30.7837    1.9067 H         1 UNK         0.0771 
    128 H128       34.9471   31.0552    2.0063 H         1 UNK         0.0771 
    129 H129       36.0713   32.3000    2.5454 H         1 UNK         0.0771 
    130 H130       35.0207   29.1695    5.8654 H         1 UNK         0.2980 
    131 H131       34.3352   26.8336    4.3608 H         1 UNK         0.0545 
    132 H132       37.4628   27.6643    5.5522 H         1 UNK         0.3459 
    133 H133       38.0938   26.0363    5.5351 H         1 UNK         0.3459 
    134 H134       33.5255   25.8931    6.4603 H         1 UNK         0.0616 
    135 H135       34.4546   27.0255    7.4026 H         1 UNK         0.0616 
    136 H136       30.8838   28.5378    4.8295 H         1 UNK         0.0634 
    137 H137       32.3166   27.8181    4.1560 H         1 UNK         0.0634 
@<TRIPOS>BOND
     1    1    2 1    
     2    1   72 1    
     3    1   73 1    
     4    1   74 1    
     5    2    3 2    
     6    2    4 am   BACKBONE|DICT|INTERRES
     7    4    5 1    
     8    4   75 1    
     9    5    6 1    
    10    5   35 1    
    11    5   76 1    
    12    6    7 1    
    13    6   77 1    
    14    6   78 1    
    15    7    8 1    
    16    8    9 1    
    17    8   79 1    
    18    8   80 1    
    19    9   10 ar   
    20    9   14 ar   
    21   10   11 ar   
    22   10   81 1    
    23   11   12 ar   
    24   11   71 1    
    25   12   13 ar   
    26   12   82 1    
    27   13   14 ar   
    28   13   15 1    
    29   14   83 1    
    30   15   16 1    
    31   15   84 1    
    32   15   85 1    
    33   16   17 1    
    34   17   18 1    
    35   17   86 1    
    36   17   87 1    
    37   18   19 1    
    38   18   37 1    
    39   18   88 1    
    40   19   20 am   BACKBONE|DICT|INTERRES
    41   19   89 1    
    42   20   21 2    
    43   20   22 1    
    44   22   23 1    
    45   22   24 1    
    46   22   90 1    
    47   23   91 1    
    48   23   92 1    
    49   23   93 1    
    50   24   25 am   BACKBONE|DICT|INTERRES
    51   24   94 1    
    52   25   26 2    
    53   25   27 1    
    54   27   28 1    
    55   27   29 1    
    56   27   95 1    
    57   28   96 1    
    58   28   97 1    
    59   28   98 1    
    60   29   30 am   BACKBONE|DICT|INTERRES
    61   29   99 1    
    62   30   31 2    
    63   30   32 1    
    64   32   33 1    
    65   32   34 1    
    66   32  100 1    
    67   33  101 1    
    68   33  102 1    
    69   33  103 1    
    70   34   35 am   BACKBONE|DICT|INTERRES
    71   34  104 1    
    72   35   36 2    
    73   37   38 2    
    74   37   39 am   BACKBONE|DICT|INTERRES
    75   39   40 1    
    76   39  105 1    
    77   40   41 1    
    78   40   42 1    
    79   40  106 1    
    80   41  107 1    
    81   41  108 1    
    82   41  109 1    
    83   42   43 2    
    84   42   44 am   BACKBONE|DICT|INTERRES
    85   44   45 1    
    86   44  110 1    
    87   45   46 1    
    88   45   47 1    
    89   45  111 1    
    90   46  112 1    
    91   46  113 1    
    92   46  114 1    
    93   47   48 2    
    94   47   49 am   BACKBONE|DICT|INTERRES
    95   49   50 1    
    96   49  115 1    
    97   50   51 1    
    98   50   52 1    
    99   50  116 1    
   100   51  117 1    
   101   51  118 1    
   102   51  119 1    
   103   52   53 2    
   104   52   54 am   BACKBONE|DICT|INTERRES
   105   54   55 1    
   106   54  120 1    
   107   55   56 1    
   108   55   57 1    
   109   55  121 1    
   110   56  122 1    
   111   56  123 1    
   112   56  124 1    
   113   57   58 2    
   114   57   59 am   BACKBONE|DICT|INTERRES
   115   59   60 1    
   116   59  125 1    
   117   60   61 1    
   118   60   62 1    
   119   60  126 1    
   120   61  127 1    
   121   61  128 1    
   122   61  129 1    
   123   62   63 2    
   124   62   64 am   BACKBONE|DICT|INTERRES
   125   64   65 1    
   126   64  130 1    
   127   65   66 1    
   128   65   69 1    
   129   65  131 1    
   130   66   67 am   BACKBONE|DICT|INTERRES
   131   66   68 2    
   132   67  132 1    
   133   67  133 1    
   134   69   70 1    
   135   69  134 1    
   136   69  135 1    
   137   70   71 1    
   138   71  136 1    
   139   71  137 1    
@<TRIPOS>SUBSTRUCTURE
     1 UNK         1 GROUP             0       ****    0 ROOT    
