@<TRIPOS>MOLECULE
3R136
137   139    1
SMALL
USER_CHARGES


@<TRIPOS>ATOM
      1 CA         26.1774   22.3885    4.8695 C.3       0 UNK        -0.1979 
      2 C          26.4654   22.9146    3.4719 C.2       0 UNK         0.4864 
      3 O          25.5443   23.0474    2.6649 O.2       0 UNK        -0.5359 
      4 N          27.7346   23.2356    3.1811 N.am      1 UNK        -0.4318 
      5 CA         28.2098   23.7328    1.8813 C.3       1 UNK         0.0824 
      6 C6         29.7540   23.7880    1.7957 C.3       12 UNK        -0.0944 
      7 S7         30.5457   24.7252    3.1469 S.3       12 UNK        -0.2672 
      8 C8         32.2840   24.6893    2.6098 C.3       12 UNK         0.0333 
      9 C9         32.6573   25.9225    1.7993 C.ar      12 UNK        -0.0807 
     10 C10        33.2603   27.0114    2.4323 C.ar      12 UNK        -0.0894 
     11 C11        33.6530   28.1389    1.7087 C.ar      12 UNK        -0.0804 
     12 C12        33.4199   28.1804    0.3313 C.ar      12 UNK        -0.0824 
     13 C13        32.8029   27.1040   -0.3160 C.ar      12 UNK        -0.0762 
     14 C14        32.4317   25.9739    0.4205 C.ar      12 UNK        -0.0782 
     15 C15        32.5469   27.1633   -1.8139 C.3       12 UNK         0.0230 
     16 S16        31.1435   28.2513   -2.2091 S.3       12 UNK        -0.2608 
     17 C17        29.7307   27.2935   -1.5592 C.3       12 UNK        -0.0989 
     18 CA         28.3952   27.6961   -2.2390 C.3       5 UNK         0.0716 
     19 N          27.4280   26.6011   -2.1829 N.am      5 UNK        -0.4135 
     20 C          26.4654   26.3713   -3.0839 C.2       4 UNK         0.5031 
     21 O          26.3068   27.0419   -4.1053 O.2       4 UNK        -0.5229 
     22 CA         25.5262   25.1872   -2.8124 C.3       4 UNK         0.0329 
     23 CB         26.2487   23.8526   -3.0645 C.3       4 UNK        -0.2001 
     24 N          25.0141   25.2075   -1.4405 N.am      4 UNK        -0.4303 
     25 C          23.7186   25.2934   -1.1024 C.2       3 UNK         0.5044 
     26 O          22.8014   25.3787   -1.9205 O.2       3 UNK        -0.5152 
     27 CA         23.3659   25.2592    0.3991 C.3       3 UNK         0.0319 
     28 CB         22.8632   23.8624    0.7972 C.3       3 UNK        -0.2001 
     29 N          24.4892   25.6285    1.2628 N.am      3 UNK        -0.4354 
     30 C          24.9546   26.8807    1.3939 C.2       2 UNK         0.4964 
     31 O          24.3711   27.8635    0.9366 O.2       2 UNK        -0.5047 
     32 CA         26.2856   27.0854    2.1482 C.3       2 UNK         0.0288 
     33 CB         26.0384   27.7817    3.4954 C.3       2 UNK        -0.2113 
     34 N          27.0553   25.8584    2.3814 N.am      2 UNK        -0.4145 
     35 C          27.5629   25.0595    1.4307 C.2       1 UNK         0.5006 
     36 O          27.4693   25.2933    0.2251 O.2       1 UNK        -0.5103 
     37 C          27.7963   28.9756   -1.6195 C.2       5 UNK         0.5055 
     38 O          26.7771   28.9230   -0.9292 O.2       5 UNK        -0.5220 
     39 N          28.4619   30.1098   -1.8633 N.am      6 UNK        -0.4450 
     40 CA         28.0978   31.4278   -1.3376 C.3       6 UNK         0.0367 
     41 CB         28.7440   32.5053   -2.2253 C.3       6 UNK        -0.1929 
     42 C          28.4873   31.6418    0.1392 C.2       6 UNK         0.5070 
     43 O          28.0879   32.6552    0.7145 O.2       6 UNK        -0.5237 
     44 N          29.2668   30.7237    0.7234 N.am      7 UNK        -0.4739 
     45 CA         29.7598   30.7852    2.0972 C.3       7 UNK         0.0276 
     46 CB         31.2136   31.2883    2.0803 C.3       7 UNK        -0.1927 
     47 C          29.6673   29.4033    2.7565 C.2       7 UNK         0.5013 
     48 O          29.5814   28.3922    2.0572 O.2       7 UNK        -0.5193 
     49 N          29.6992   29.4036    4.0940 N.am      8 UNK        -0.4253 
     50 CA         29.7827   28.2148    4.9431 C.3       8 UNK         0.0242 
     51 CB         28.9578   28.4674    6.2191 C.3       8 UNK        -0.2000 
     52 C          31.2475   27.9318    5.3112 C.2       8 UNK         0.4948 
     53 O          32.1168   28.7754    5.0765 O.2       8 UNK        -0.5275 
     54 N          31.4924   26.7757    5.9443 N.am      9 UNK        -0.4246 
     55 CA         32.7942   26.2544    6.3958 C.3       9 UNK         0.0261 
     56 CB         32.6162   24.7742    6.7844 C.3       9 UNK        -0.1959 
     57 C          33.5060   27.0714    7.5027 C.2       9 UNK         0.5033 
     58 O          34.1389   26.4879    8.3847 O.2       9 UNK        -0.5390 
     59 N          33.4066   28.4014    7.4331 N.am      10 UNK        -0.4215 
     60 CA         34.0853   29.3681    8.2936 C.3       10 UNK         0.0240 
     61 CB         33.1084   30.5114    8.6158 C.3       10 UNK        -0.1982 
     62 C          35.3632   29.9258    7.6422 C.2       10 UNK         0.4970 
     63 O          36.2025   30.4675    8.3631 O.2       10 UNK        -0.4916 
     64 N          35.4922   29.8102    6.3112 N.am      11 UNK        -0.4279 
     65 CA         36.6750   30.2402    5.5503 C.3       11 UNK         0.1003 
     66 C          37.9438   29.3837    5.8332 C.2       11 UNK         0.5709 
     67 N          39.1249   29.9197    5.5548 N.am      11 UNK        -0.7358 
     68 O          37.8716   28.2389    6.2778 O.2       11 UNK        -0.4999 
     69 C69        36.3719   30.3784    4.0323 C.3       12 UNK        -0.0954 
     70 S70        35.8836   28.8235    3.2069 S.3       12 UNK        -0.2268 
     71 C71        34.3126   29.3093    2.4260 C.3       12 UNK         0.0203 
     72 H72        25.7473   21.3891    4.8113 H         1 UNK         0.0888 
     73 H73        27.0791   22.3352    5.4793 H         1 UNK         0.0888 
     74 H74        25.4632   23.0381    5.3747 H         1 UNK         0.0888 
     75 H75        28.4517   23.1250    3.8846 H         1 UNK         0.3017 
     76 H76        27.8830   22.9957    1.1442 H         1 UNK         0.0873 
     77 H77        30.0670   24.2010    0.8357 H         1 UNK         0.0745 
     78 H78        30.1499   22.7715    1.8214 H         1 UNK         0.0745 
     79 H79        32.4834   23.7838    2.0348 H         1 UNK         0.0705 
     80 H80        32.9167   24.6246    3.4961 H         1 UNK         0.0705 
     81 H81        33.4415   26.9850    3.4942 H         1 UNK         0.1334 
     82 H82        33.7090   29.0521   -0.2399 H         1 UNK         0.1417 
     83 H83        31.9700   25.1351   -0.0803 H         1 UNK         0.1562 
     84 H84        32.3671   26.1677   -2.2226 H         1 UNK         0.0748 
     85 H85        33.4379   27.5416   -2.3171 H         1 UNK         0.0748 
     86 H86        29.6814   27.3902   -0.4720 H         1 UNK         0.0940 
     87 H87        29.9361   26.2389   -1.7507 H         1 UNK         0.0940 
     88 H88        28.5947   27.9036   -3.2930 H         1 UNK         0.0703 
     89 H89        27.4533   26.0449   -1.3294 H         1 UNK         0.3081 
     90 H90        24.7039   25.2606   -3.5273 H         1 UNK         0.0719 
     91 H91        26.6589   23.8144   -4.0746 H         1 UNK         0.0809 
     92 H92        27.0749   23.6988   -2.3689 H         1 UNK         0.0809 
     93 H93        25.5652   23.0098   -2.9610 H         1 UNK         0.0809 
     94 H94        25.7067   25.1801   -0.7001 H         1 UNK         0.2990 
     95 H95        22.5543   25.9711    0.5638 H         1 UNK         0.0690 
     96 H96        22.5713   23.8292    1.8471 H         1 UNK         0.0788 
     97 H97        23.6263   23.0993    0.6382 H         1 UNK         0.0788 
     98 H98        21.9900   23.5784    0.2083 H         1 UNK         0.0788 
     99 H99        24.9850   24.8646    1.7108 H         1 UNK         0.2993 
    100 H100       26.9008   27.7425    1.5295 H         1 UNK         0.0949 
    101 H101       25.4860   28.7128    3.3607 H         1 UNK         0.0767 
    102 H102       25.4633   27.1539    4.1771 H         1 UNK         0.0767 
    103 H103       26.9788   28.0368    3.9791 H         1 UNK         0.0767 
    104 H104       27.1737   25.5742    3.3421 H         1 UNK         0.3013 
    105 H105       29.3160   30.0562   -2.4027 H         1 UNK         0.3121 
    106 H106       27.0132   31.5390   -1.4031 H         1 UNK         0.0774 
    107 H107       28.4609   33.5060   -1.8957 H         1 UNK         0.0815 
    108 H108       29.8330   32.4502   -2.1984 H         1 UNK         0.0815 
    109 H109       28.4267   32.4082   -3.2637 H         1 UNK         0.0815 
    110 H110       29.4942   29.8738    0.2248 H         1 UNK         0.2987 
    111 H111       29.1474   31.4730    2.6848 H         1 UNK         0.0949 
    112 H112       31.6369   31.3169    3.0852 H         1 UNK         0.0806 
    113 H113       31.2781   32.2972    1.6725 H         1 UNK         0.0806 
    114 H114       31.8494   30.6423    1.4744 H         1 UNK         0.0806 
    115 H115       29.8388   30.2843    4.5675 H         1 UNK         0.3010 
    116 H116       29.3803   27.3486    4.4131 H         1 UNK         0.0829 
    117 H117       29.3912   29.2611    6.8295 H         1 UNK         0.0813 
    118 H118       27.9330   28.7552    5.9867 H         1 UNK         0.0813 
    119 H119       28.9043   27.5727    6.8404 H         1 UNK         0.0813 
    120 H120       30.7054   26.1685    6.1209 H         1 UNK         0.3038 
    121 H121       33.4714   26.2777    5.5432 H         1 UNK         0.0769 
    122 H122       33.5741   24.3100    7.0234 H         1 UNK         0.0811 
    123 H123       32.1793   24.1970    5.9694 H         1 UNK         0.0811 
    124 H124       31.9727   24.6638    7.6580 H         1 UNK         0.0811 
    125 H125       32.8840   28.7720    6.6384 H         1 UNK         0.3204 
    126 H126       34.3748   28.8903    9.2319 H         1 UNK         0.0748 
    127 H127       33.5714   31.2488    9.2731 H         1 UNK         0.0771 
    128 H128       32.7854   31.0335    7.7139 H         1 UNK         0.0771 
    129 H129       32.2185   30.1393    9.1238 H         1 UNK         0.0771 
    130 H130       34.7808   29.3271    5.7842 H         1 UNK         0.2980 
    131 H131       36.9107   31.2447    5.9081 H         1 UNK         0.0545 
    132 H132       39.2006   30.8534    5.1825 H         1 UNK         0.3459 
    133 H133       39.9588   29.3784    5.7216 H         1 UNK         0.3459 
    134 H134       35.5849   31.1210    3.8926 H         1 UNK         0.0616 
    135 H135       37.2405   30.7786    3.5069 H         1 UNK         0.0616 
    136 H136       33.6337   29.6934    3.1867 H         1 UNK         0.0634 
    137 H137       34.5014   30.1307    1.7332 H         1 UNK         0.0634 
@<TRIPOS>BOND
     1    1    2 1    
     2    1   72 1    
     3    1   73 1    
     4    1   74 1    
     5    2    3 2    
     6    2    4 am   BACKBONE|DICT|INTERRES
     7    4    5 1    
     8    4   75 1    
     9    5    6 1    
    10    5   35 1    
    11    5   76 1    
    12    6    7 1    
    13    6   77 1    
    14    6   78 1    
    15    7    8 1    
    16    8    9 1    
    17    8   79 1    
    18    8   80 1    
    19    9   10 ar   
    20    9   14 ar   
    21   10   11 ar   
    22   10   81 1    
    23   11   12 ar   
    24   11   71 1    
    25   12   13 ar   
    26   12   82 1    
    27   13   14 ar   
    28   13   15 1    
    29   14   83 1    
    30   15   16 1    
    31   15   84 1    
    32   15   85 1    
    33   16   17 1    
    34   17   18 1    
    35   17   86 1    
    36   17   87 1    
    37   18   19 1    
    38   18   37 1    
    39   18   88 1    
    40   19   20 am   BACKBONE|DICT|INTERRES
    41   19   89 1    
    42   20   21 2    
    43   20   22 1    
    44   22   23 1    
    45   22   24 1    
    46   22   90 1    
    47   23   91 1    
    48   23   92 1    
    49   23   93 1    
    50   24   25 am   BACKBONE|DICT|INTERRES
    51   24   94 1    
    52   25   26 2    
    53   25   27 1    
    54   27   28 1    
    55   27   29 1    
    56   27   95 1    
    57   28   96 1    
    58   28   97 1    
    59   28   98 1    
    60   29   30 am   BACKBONE|DICT|INTERRES
    61   29   99 1    
    62   30   31 2    
    63   30   32 1    
    64   32   33 1    
    65   32   34 1    
    66   32  100 1    
    67   33  101 1    
    68   33  102 1    
    69   33  103 1    
    70   34   35 am   BACKBONE|DICT|INTERRES
    71   34  104 1    
    72   35   36 2    
    73   37   38 2    
    74   37   39 am   BACKBONE|DICT|INTERRES
    75   39   40 1    
    76   39  105 1    
    77   40   41 1    
    78   40   42 1    
    79   40  106 1    
    80   41  107 1    
    81   41  108 1    
    82   41  109 1    
    83   42   43 2    
    84   42   44 am   BACKBONE|DICT|INTERRES
    85   44   45 1    
    86   44  110 1    
    87   45   46 1    
    88   45   47 1    
    89   45  111 1    
    90   46  112 1    
    91   46  113 1    
    92   46  114 1    
    93   47   48 2    
    94   47   49 am   BACKBONE|DICT|INTERRES
    95   49   50 1    
    96   49  115 1    
    97   50   51 1    
    98   50   52 1    
    99   50  116 1    
   100   51  117 1    
   101   51  118 1    
   102   51  119 1    
   103   52   53 2    
   104   52   54 am   BACKBONE|DICT|INTERRES
   105   54   55 1    
   106   54  120 1    
   107   55   56 1    
   108   55   57 1    
   109   55  121 1    
   110   56  122 1    
   111   56  123 1    
   112   56  124 1    
   113   57   58 2    
   114   57   59 am   BACKBONE|DICT|INTERRES
   115   59   60 1    
   116   59  125 1    
   117   60   61 1    
   118   60   62 1    
   119   60  126 1    
   120   61  127 1    
   121   61  128 1    
   122   61  129 1    
   123   62   63 2    
   124   62   64 am   BACKBONE|DICT|INTERRES
   125   64   65 1    
   126   64  130 1    
   127   65   66 1    
   128   65   69 1    
   129   65  131 1    
   130   66   67 am   BACKBONE|DICT|INTERRES
   131   66   68 2    
   132   67  132 1    
   133   67  133 1    
   134   69   70 1    
   135   69  134 1    
   136   69  135 1    
   137   70   71 1    
   138   71  136 1    
   139   71  137 1    
@<TRIPOS>SUBSTRUCTURE
     1 UNK         1 GROUP             0       ****    0 ROOT    
