@<TRIPOS>MOLECULE
3R136
137   139    1
SMALL
USER_CHARGES


@<TRIPOS>ATOM
      1 CA         26.7121   22.8179    0.9682 C.3       0 UNK        -0.1979 
      2 C          27.9236   22.9835    0.0643 C.2       0 UNK         0.4864 
      3 O          28.4324   24.0953   -0.0663 O.2       0 UNK        -0.5359 
      4 N          28.3714   21.8930   -0.5770 N.am      1 UNK        -0.4318 
      5 CA         29.5622   21.8130   -1.4416 C.3       1 UNK         0.0824 
      6 C6         30.8902   21.8985   -0.6413 C.3       12 UNK        -0.0944 
      7 S7         31.0516   20.5005    0.5173 S.3       12 UNK        -0.2672 
      8 C8         32.4317   21.0559    1.5662 C.3       12 UNK         0.0333 
      9 C9         32.0277   22.1312    2.5685 C.ar      12 UNK        -0.0807 
     10 C10        32.7292   23.3393    2.6250 C.ar      12 UNK        -0.0894 
     11 C11        32.4169   24.3013    3.5917 C.ar      12 UNK        -0.0804 
     12 C12        31.3857   24.0490    4.5029 C.ar      12 UNK        -0.0824 
     13 C13        30.6587   22.8574    4.4397 C.ar      12 UNK        -0.0762 
     14 C14        30.9894   21.8999    3.4763 C.ar      12 UNK        -0.0782 
     15 C15        29.5257   22.5917    5.4179 C.3       12 UNK         0.0230 
     16 S16        27.9711   23.3541    4.8539 S.3       12 UNK        -0.2608 
     17 C17        27.9505   24.9436    5.7555 C.3       12 UNK        -0.0989 
     18 CA         28.2073   26.1883    4.8616 C.3       5 UNK         0.0716 
     19 N          27.2858   26.2405    3.7213 N.am      5 UNK        -0.4135 
     20 C          27.5110   26.9051    2.5830 C.2       4 UNK         0.5031 
     21 O          28.5334   27.5580    2.3594 O.2       4 UNK        -0.5229 
     22 CA         26.3916   26.8850    1.5397 C.3       4 UNK         0.0329 
     23 CB         25.3481   27.9784    1.8294 C.3       4 UNK        -0.2001 
     24 N          27.0036   27.1155    0.2377 N.am      4 UNK        -0.4303 
     25 C          26.5675   26.6315   -0.9275 C.2       3 UNK         0.5044 
     26 O          25.5046   26.0200   -1.0571 O.2       3 UNK        -0.5152 
     27 CA         27.4656   26.8327   -2.1584 C.3       3 UNK         0.0319 
     28 CB         28.7946   27.5679   -1.8823 C.3       3 UNK        -0.2001 
     29 N          27.7423   25.5133   -2.7158 N.am      3 UNK        -0.4354 
     30 C          27.7839   25.2077   -4.0176 C.2       2 UNK         0.4964 
     31 O          27.6624   26.0460   -4.9126 O.2       2 UNK        -0.5047 
     32 CA         27.9438   23.7201   -4.4003 C.3       2 UNK         0.0288 
     33 CB         28.8656   23.5202   -5.6231 C.3       2 UNK        -0.2113 
     34 N          28.3281   22.8391   -3.2870 N.am      2 UNK        -0.4145 
     35 C          29.4972   22.8049   -2.6269 C.2       1 UNK         0.5006 
     36 O          30.4654   23.5166   -2.9007 O.2       1 UNK        -0.5103 
     37 C          28.1182   27.5029    5.6734 C.2       5 UNK         0.5055 
     38 O          27.6721   27.4841    6.8228 O.2       5 UNK        -0.5220 
     39 N          28.4892   28.6283    5.0526 N.am      6 UNK        -0.4450 
     40 CA         28.3572   29.9736    5.6041 C.3       6 UNK         0.0367 
     41 CB         27.0457   30.5927    5.0865 C.3       6 UNK        -0.1929 
     42 C          29.5546   30.8429    5.2088 C.2       6 UNK         0.5070 
     43 O          30.2700   30.5294    4.2527 O.2       6 UNK        -0.5237 
     44 N          29.7081   31.9692    5.9182 N.am      7 UNK        -0.4739 
     45 CA         30.7453   32.9836    5.6943 C.3       7 UNK         0.0276 
     46 CB         30.6524   34.0570    6.7895 C.3       7 UNK        -0.1927 
     47 C          30.6996   33.6325    4.2990 C.2       7 UNK         0.5013 
     48 O          31.7365   34.0844    3.8155 O.2       7 UNK        -0.5193 
     49 N          29.5288   33.6039    3.6454 N.am      8 UNK        -0.4253 
     50 CA         29.3302   33.9876    2.2435 C.3       8 UNK         0.0242 
     51 CB         27.8312   33.9163    1.9100 C.3       8 UNK        -0.2000 
     52 C          30.1424   33.1363    1.2459 C.2       8 UNK         0.4948 
     53 O          30.4921   33.6393    0.1780 O.2       8 UNK        -0.5275 
     54 N          30.4500   31.8857    1.6189 N.am      9 UNK        -0.4246 
     55 CA         31.3278   30.9724    0.8838 C.3       9 UNK         0.0261 
     56 CB         30.6499   29.5938    0.8275 C.3       9 UNK        -0.1959 
     57 C          32.7218   30.8707    1.5360 C.2       9 UNK         0.5033 
     58 O          33.5012   30.0015    1.1444 O.2       9 UNK        -0.5390 
     59 N          33.0073   31.7371    2.5224 N.am      10 UNK        -0.4215 
     60 CA         34.2018   31.7795    3.3745 C.3       10 UNK         0.0240 
     61 CB         35.4733   32.0573    2.5435 C.3       10 UNK        -0.1982 
     62 C          34.3531   30.5621    4.3104 C.2       10 UNK         0.4970 
     63 O          35.4580   30.3182    4.7996 O.2       10 UNK        -0.4916 
     64 N          33.2602   29.8307    4.5658 N.am      11 UNK        -0.4279 
     65 CA         33.2302   28.6891    5.4898 C.3       11 UNK         0.1003 
     66 C          33.1533   29.1461    6.9712 C.2       11 UNK         0.5709 
     67 N          33.6424   28.3304    7.8954 N.am      11 UNK        -0.7358 
     68 O          32.6285   30.2100    7.2956 O.2       11 UNK        -0.4999 
     69 C69        32.0859   27.6996    5.1529 C.3       12 UNK        -0.0954 
     70 S70        32.1843   27.0723    3.4428 S.3       12 UNK        -0.2268 
     71 C71        33.2214   25.5926    3.6648 C.3       12 UNK         0.0203 
     72 H72        26.9493   23.1643    1.9741 H         1 UNK         0.0888 
     73 H73        25.8796   23.4117    0.5894 H         1 UNK         0.0888 
     74 H74        26.3898   21.7782    1.0344 H         1 UNK         0.0888 
     75 H75        27.8982   21.0128   -0.4260 H         1 UNK         0.3017 
     76 H76        29.5308   20.8257   -1.9057 H         1 UNK         0.0873 
     77 H77        31.7528   21.8707   -1.3095 H         1 UNK         0.0745 
     78 H78        30.9508   22.8400   -0.0922 H         1 UNK         0.0745 
     79 H79        33.2481   21.3977    0.9282 H         1 UNK         0.0705 
     80 H80        32.8149   20.1968    2.1181 H         1 UNK         0.0705 
     81 H81        33.5362   23.5219    1.9285 H         1 UNK         0.1334 
     82 H82        31.1419   24.7832    5.2567 H         1 UNK         0.1417 
     83 H83        30.4416   20.9681    3.4334 H         1 UNK         0.1562 
     84 H84        29.7938   22.9396    6.4162 H         1 UNK         0.0748 
     85 H85        29.3642   21.5169    5.5143 H         1 UNK         0.0748 
     86 H86        28.6751   24.9130    6.5709 H         1 UNK         0.0940 
     87 H87        26.9732   25.0188    6.2367 H         1 UNK         0.0940 
     88 H88        29.2263   26.1161    4.4757 H         1 UNK         0.0703 
     89 H89        26.4123   25.7492    3.8397 H         1 UNK         0.3081 
     90 H90        25.9175   25.9014    1.5547 H         1 UNK         0.0719 
     91 H91        25.7979   28.9722    1.8310 H         1 UNK         0.0809 
     92 H92        24.5517   27.9729    1.0852 H         1 UNK         0.0809 
     93 H93        24.8818   27.8290    2.8040 H         1 UNK         0.0809 
     94 H94        27.9203   27.5427    0.2910 H         1 UNK         0.2990 
     95 H95        26.8843   27.4224   -2.8703 H         1 UNK         0.0690 
     96 H96        29.3788   27.6731   -2.7967 H         1 UNK         0.0788 
     97 H97        29.4134   27.0346   -1.1586 H         1 UNK         0.0788 
     98 H98        28.6170   28.5747   -1.5036 H         1 UNK         0.0788 
     99 H99        27.8568   24.7776   -2.0271 H         1 UNK         0.2993 
    100 H100       26.9457   23.3945   -4.6967 H         1 UNK         0.0949 
    101 H101       28.9558   22.4661   -5.8850 H         1 UNK         0.0767 
    102 H102       28.4709   24.0365   -6.4990 H         1 UNK         0.0767 
    103 H103       29.8679   23.9100   -5.4455 H         1 UNK         0.0767 
    104 H104       27.5984   22.2202   -2.9607 H         1 UNK         0.3013 
    105 H105       28.8651   28.5686    4.1089 H         1 UNK         0.3121 
    106 H106       28.3313   29.9280    6.6951 H         1 UNK         0.0774 
    107 H107       26.8905   31.5946    5.4884 H         1 UNK         0.0815 
    108 H108       27.0402   30.6700    3.9982 H         1 UNK         0.0815 
    109 H109       26.1838   29.9936    5.3807 H         1 UNK         0.0815 
    110 H110       29.0695   32.1476    6.6807 H         1 UNK         0.2987 
    111 H111       31.7130   32.4849    5.7845 H         1 UNK         0.0949 
    112 H112       29.6906   34.5710    6.7725 H         1 UNK         0.0806 
    113 H113       30.7867   33.6240    7.7811 H         1 UNK         0.0806 
    114 H114       31.4286   34.8131    6.6621 H         1 UNK         0.0806 
    115 H115       28.7306   33.2201    4.1293 H         1 UNK         0.3010 
    116 H116       29.6605   35.0228    2.1339 H         1 UNK         0.0829 
    117 H117       27.2490   34.5793    2.5504 H         1 UNK         0.0813 
    118 H118       27.6463   34.2213    0.8789 H         1 UNK         0.0813 
    119 H119       27.4387   32.9050    2.0256 H         1 UNK         0.0813 
    120 H120       30.1403   31.5484    2.5260 H         1 UNK         0.3038 
    121 H121       31.4720   31.3248   -0.1394 H         1 UNK         0.0769 
    122 H122       31.2115   28.9007    0.2002 H         1 UNK         0.0811 
    123 H123       29.6420   29.6611    0.4202 H         1 UNK         0.0811 
    124 H124       30.5783   29.1473    1.8197 H         1 UNK         0.0811 
    125 H125       32.3158   32.4457    2.7429 H         1 UNK         0.3204 
    126 H126       34.0590   32.6347    4.0361 H         1 UNK         0.0748 
    127 H127       36.3272   32.2629    3.1902 H         1 UNK         0.0771 
    128 H128       35.7416   31.2077    1.9151 H         1 UNK         0.0771 
    129 H129       35.3432   32.9257    1.8977 H         1 UNK         0.0771 
    130 H130       32.3665   30.1017    4.1739 H         1 UNK         0.2980 
    131 H131       34.1699   28.1455    5.3717 H         1 UNK         0.0545 
    132 H132       34.0709   27.4527    7.6467 H         1 UNK         0.3459 
    133 H133       33.5907   28.6048    8.8639 H         1 UNK         0.3459 
    134 H134       32.0869   26.8560    5.8445 H         1 UNK         0.0616 
    135 H135       31.1215   28.1871    5.2779 H         1 UNK         0.0616 
    136 H136       33.9900   25.6074    2.8907 H         1 UNK         0.0634 
    137 H137       33.7533   25.6358    4.6159 H         1 UNK         0.0634 
@<TRIPOS>BOND
     1    1    2 1    
     2    1   72 1    
     3    1   73 1    
     4    1   74 1    
     5    2    3 2    
     6    2    4 am   BACKBONE|DICT|INTERRES
     7    4    5 1    
     8    4   75 1    
     9    5    6 1    
    10    5   35 1    
    11    5   76 1    
    12    6    7 1    
    13    6   77 1    
    14    6   78 1    
    15    7    8 1    
    16    8    9 1    
    17    8   79 1    
    18    8   80 1    
    19    9   10 ar   
    20    9   14 ar   
    21   10   11 ar   
    22   10   81 1    
    23   11   12 ar   
    24   11   71 1    
    25   12   13 ar   
    26   12   82 1    
    27   13   14 ar   
    28   13   15 1    
    29   14   83 1    
    30   15   16 1    
    31   15   84 1    
    32   15   85 1    
    33   16   17 1    
    34   17   18 1    
    35   17   86 1    
    36   17   87 1    
    37   18   19 1    
    38   18   37 1    
    39   18   88 1    
    40   19   20 am   BACKBONE|DICT|INTERRES
    41   19   89 1    
    42   20   21 2    
    43   20   22 1    
    44   22   23 1    
    45   22   24 1    
    46   22   90 1    
    47   23   91 1    
    48   23   92 1    
    49   23   93 1    
    50   24   25 am   BACKBONE|DICT|INTERRES
    51   24   94 1    
    52   25   26 2    
    53   25   27 1    
    54   27   28 1    
    55   27   29 1    
    56   27   95 1    
    57   28   96 1    
    58   28   97 1    
    59   28   98 1    
    60   29   30 am   BACKBONE|DICT|INTERRES
    61   29   99 1    
    62   30   31 2    
    63   30   32 1    
    64   32   33 1    
    65   32   34 1    
    66   32  100 1    
    67   33  101 1    
    68   33  102 1    
    69   33  103 1    
    70   34   35 am   BACKBONE|DICT|INTERRES
    71   34  104 1    
    72   35   36 2    
    73   37   38 2    
    74   37   39 am   BACKBONE|DICT|INTERRES
    75   39   40 1    
    76   39  105 1    
    77   40   41 1    
    78   40   42 1    
    79   40  106 1    
    80   41  107 1    
    81   41  108 1    
    82   41  109 1    
    83   42   43 2    
    84   42   44 am   BACKBONE|DICT|INTERRES
    85   44   45 1    
    86   44  110 1    
    87   45   46 1    
    88   45   47 1    
    89   45  111 1    
    90   46  112 1    
    91   46  113 1    
    92   46  114 1    
    93   47   48 2    
    94   47   49 am   BACKBONE|DICT|INTERRES
    95   49   50 1    
    96   49  115 1    
    97   50   51 1    
    98   50   52 1    
    99   50  116 1    
   100   51  117 1    
   101   51  118 1    
   102   51  119 1    
   103   52   53 2    
   104   52   54 am   BACKBONE|DICT|INTERRES
   105   54   55 1    
   106   54  120 1    
   107   55   56 1    
   108   55   57 1    
   109   55  121 1    
   110   56  122 1    
   111   56  123 1    
   112   56  124 1    
   113   57   58 2    
   114   57   59 am   BACKBONE|DICT|INTERRES
   115   59   60 1    
   116   59  125 1    
   117   60   61 1    
   118   60   62 1    
   119   60  126 1    
   120   61  127 1    
   121   61  128 1    
   122   61  129 1    
   123   62   63 2    
   124   62   64 am   BACKBONE|DICT|INTERRES
   125   64   65 1    
   126   64  130 1    
   127   65   66 1    
   128   65   69 1    
   129   65  131 1    
   130   66   67 am   BACKBONE|DICT|INTERRES
   131   66   68 2    
   132   67  132 1    
   133   67  133 1    
   134   69   70 1    
   135   69  134 1    
   136   69  135 1    
   137   70   71 1    
   138   71  136 1    
   139   71  137 1    
@<TRIPOS>SUBSTRUCTURE
     1 UNK         1 GROUP             0       ****    0 ROOT    
