@<TRIPOS>MOLECULE
3R136
137   139    1
SMALL
USER_CHARGES


@<TRIPOS>ATOM
      1 CA         28.4041   22.3474   -3.4677 C.3       0 UNK        -0.1979 
      2 C          28.5561   23.0027   -2.1041 C.2       0 UNK         0.4864 
      3 O          28.2760   24.1939   -1.9682 O.2       0 UNK        -0.5359 
      4 N          28.9824   22.2313   -1.0933 N.am      1 UNK        -0.4318 
      5 CA         29.2392   22.6667    0.2879 C.3       1 UNK         0.0824 
      6 C6         29.6982   21.4884    1.1795 C.3       12 UNK        -0.0944 
      7 S7         31.3847   20.9564    0.7375 S.3       12 UNK        -0.2672 
      8 C8         32.3128   21.3332    2.2615 C.3       12 UNK         0.0333 
      9 C9         32.2157   22.7977    2.6753 C.ar      12 UNK        -0.0807 
     10 C10        32.8259   23.7914    1.9065 C.ar      12 UNK        -0.0894 
     11 C11        32.7751   25.1296    2.3067 C.ar      12 UNK        -0.0804 
     12 C12        32.0962   25.4743    3.4809 C.ar      12 UNK        -0.0824 
     13 C13        31.4769   24.4900    4.2620 C.ar      12 UNK        -0.0762 
     14 C14        31.5443   23.1551    3.8490 C.ar      12 UNK        -0.0782 
     15 C15        30.7722   24.8175    5.5809 C.3       12 UNK         0.0230 
     16 S16        29.9583   26.4515    5.6594 S.3       12 UNK        -0.2608 
     17 C17        28.7358   26.3308    4.3121 C.3       12 UNK        -0.0989 
     18 CA         28.8091   27.5593    3.3631 C.3       5 UNK         0.0716 
     19 N          28.8717   27.1766    1.9486 N.am      5 UNK        -0.4135 
     20 C          29.2486   28.0114    0.9690 C.2       4 UNK         0.5031 
     21 O          29.5633   29.1865    1.1537 O.2       4 UNK        -0.5229 
     22 CA         29.2268   27.4660   -0.4666 C.3       4 UNK         0.0329 
     23 CB         30.4282   26.5436   -0.7200 C.3       4 UNK        -0.2001 
     24 N          27.9821   26.7730   -0.8035 N.am      4 UNK        -0.4303 
     25 C          26.7675   27.3413   -0.8019 C.2       3 UNK         0.5044 
     26 O          26.5571   28.5078   -0.4732 O.2       3 UNK        -0.5152 
     27 CA         25.5849   26.4539   -1.2141 C.3       3 UNK         0.0319 
     28 CB         25.5220   26.2950   -2.7418 C.3       3 UNK        -0.2001 
     29 N          25.6615   25.1387   -0.5809 N.am      3 UNK        -0.4354 
     30 C          25.3187   24.8991    0.6926 C.2       2 UNK         0.4964 
     31 O          24.8358   25.7453    1.4444 O.2       2 UNK        -0.5047 
     32 CA         25.5865   23.4826    1.2310 C.3       2 UNK         0.0288 
     33 CB         24.4067   22.5501    0.9127 C.3       2 UNK        -0.2113 
     34 N          26.8283   22.8904    0.7252 N.am      2 UNK        -0.4145 
     35 C          28.0508   23.4006    0.9359 C.2       1 UNK         0.5006 
     36 O          28.2605   24.4307    1.5760 O.2       1 UNK        -0.5103 
     37 C          27.6797   28.5716    3.6516 C.2       5 UNK         0.5055 
     38 O          27.8249   29.3916    4.5575 O.2       5 UNK        -0.5220 
     39 N          26.5840   28.5190    2.8776 N.am      6 UNK        -0.4450 
     40 CA         25.5024   29.5054    2.9360 C.3       6 UNK         0.0367 
     41 CB         24.2565   28.9678    2.2147 C.3       6 UNK        -0.1929 
     42 C          25.9288   30.8657    2.3582 C.2       6 UNK         0.5070 
     43 O          25.5493   31.8989    2.9102 O.2       6 UNK        -0.5237 
     44 N          26.7135   30.8446    1.2712 N.am      7 UNK        -0.4739 
     45 CA         27.2899   32.0312    0.6382 C.3       7 UNK         0.0276 
     46 CB         27.8472   31.6658   -0.7474 C.3       7 UNK        -0.1927 
     47 C          28.3651   32.7024    1.5087 C.2       7 UNK         0.5013 
     48 O          28.3188   33.9221    1.6779 O.2       7 UNK        -0.5193 
     49 N          29.2980   31.9102    2.0538 N.am      8 UNK        -0.4253 
     50 CA         30.3637   32.3820    2.9338 C.3       8 UNK         0.0242 
     51 CB         31.5125   32.9928    2.1065 C.3       8 UNK        -0.2000 
     52 C          30.8604   31.2271    3.8081 C.2       8 UNK         0.4948 
     53 O          31.6020   30.3689    3.3246 O.2       8 UNK        -0.5275 
     54 N          30.5027   31.2455    5.0984 N.am      9 UNK        -0.4246 
     55 CA         30.9540   30.2861    6.1147 C.3       9 UNK         0.0261 
     56 CB         29.9535   30.2845    7.2859 C.3       9 UNK        -0.1959 
     57 C          32.4026   30.5610    6.5740 C.2       9 UNK         0.5033 
     58 O          32.6615   30.6988    7.7713 O.2       9 UNK        -0.5390 
     59 N          33.3174   30.6597    5.6061 N.am      10 UNK        -0.4215 
     60 CA         34.7339   30.9690    5.7739 C.3       10 UNK         0.0240 
     61 CB         34.9298   32.4904    5.9390 C.3       10 UNK        -0.1982 
     62 C          35.4873   30.3865    4.5722 C.2       10 UNK         0.4970 
     63 O          36.0668   31.1316    3.7799 O.2       10 UNK        -0.4916 
     64 N          35.4031   29.0588    4.4304 N.am      11 UNK        -0.4279 
     65 CA         36.0060   28.2843    3.3378 C.3       11 UNK         0.1003 
     66 C          37.5601   28.3437    3.3240 C.2       11 UNK         0.5709 
     67 N          38.1747   28.2803    2.1508 N.am      11 UNK        -0.7358 
     68 O          38.2100   28.4090    4.3665 O.2       11 UNK        -0.4999 
     69 C69        35.4849   26.8217    3.3553 C.3       12 UNK        -0.0954 
     70 S70        35.2783   26.1453    1.6749 S.3       12 UNK        -0.2268 
     71 C71        33.4687   26.1957    1.4711 C.3       12 UNK         0.0203 
     72 H72        27.3728   22.4296   -3.8095 H         1 UNK         0.0888 
     73 H73        29.0446   22.8463   -4.1943 H         1 UNK         0.0888 
     74 H74        28.6727   21.2915   -3.4460 H         1 UNK         0.0888 
     75 H75        29.2074   21.2646   -1.2817 H         1 UNK         0.3017 
     76 H76        30.0522   23.3936    0.2417 H         1 UNK         0.0873 
     77 H77        29.6734   21.7566    2.2370 H         1 UNK         0.0745 
     78 H78        29.0227   20.6372    1.0767 H         1 UNK         0.0745 
     79 H79        33.3615   21.0763    2.1057 H         1 UNK         0.0705 
     80 H80        31.9566   20.6803    3.0600 H         1 UNK         0.0705 
     81 H81        33.3549   23.5204    1.0029 H         1 UNK         0.1334 
     82 H82        32.0643   26.5091    3.7921 H         1 UNK         0.1417 
     83 H83        31.0827   22.3860    4.4537 H         1 UNK         0.1562 
     84 H84        31.5081   24.7624    6.3840 H         1 UNK         0.0748 
     85 H85        30.0198   24.0587    5.8022 H         1 UNK         0.0748 
     86 H86        27.7427   26.1944    4.7455 H         1 UNK         0.0940 
     87 H87        28.9312   25.4087    3.7678 H         1 UNK         0.0940 
     88 H88        29.7424   28.0937    3.5579 H         1 UNK         0.0703 
     89 H89        28.6279   26.2133    1.7220 H         1 UNK         0.3081 
     90 H90        29.3104   28.3183   -1.1440 H         1 UNK         0.0719 
     91 H91        30.4455   25.7002   -0.0298 H         1 UNK         0.0809 
     92 H92        30.4206   26.1472   -1.7355 H         1 UNK         0.0809 
     93 H93        31.3620   27.0916   -0.5934 H         1 UNK         0.0809 
     94 H94        28.0668   25.8094   -1.1238 H         1 UNK         0.2990 
     95 H95        24.6658   26.9479   -0.8905 H         1 UNK         0.0690 
     96 H96        26.4090   25.7996   -3.1382 H         1 UNK         0.0788 
     97 H97        25.4465   27.2675   -3.2302 H         1 UNK         0.0788 
     98 H98        24.6509   25.7130   -3.0431 H         1 UNK         0.0788 
     99 H99        26.1178   24.4070   -1.1089 H         1 UNK         0.2993 
    100 H100       25.6782   23.5615    2.3166 H         1 UNK         0.0949 
    101 H101       24.2827   22.4056   -0.1613 H         1 UNK         0.0767 
    102 H102       24.5404   21.5700    1.3712 H         1 UNK         0.0767 
    103 H103       23.4714   22.9603    1.2968 H         1 UNK         0.0767 
    104 H104       26.7457   22.0486    0.1738 H         1 UNK         0.3013 
    105 H105       26.5258   27.8182    2.1519 H         1 UNK         0.3121 
    106 H106       25.2395   29.6604    3.9848 H         1 UNK         0.0774 
    107 H107       23.4399   29.6896    2.2582 H         1 UNK         0.0815 
    108 H108       24.4515   28.7603    1.1626 H         1 UNK         0.0815 
    109 H109       23.8989   28.0475    2.6763 H         1 UNK         0.0815 
    110 H110       26.9173   29.9507    0.8335 H         1 UNK         0.2987 
    111 H111       26.4848   32.7552    0.4942 H         1 UNK         0.0949 
    112 H112       28.6444   30.9250   -0.6831 H         1 UNK         0.0806 
    113 H113       27.0678   31.2594   -1.3923 H         1 UNK         0.0806 
    114 H114       28.2574   32.5444   -1.2469 H         1 UNK         0.0806 
    115 H115       29.3001   30.9120    1.8419 H         1 UNK         0.3010 
    116 H116       29.9650   33.1592    3.5898 H         1 UNK         0.0829 
    117 H117       32.3394   33.2961    2.7500 H         1 UNK         0.0813 
    118 H118       31.9070   32.2805    1.3807 H         1 UNK         0.0813 
    119 H119       31.1854   33.8782    1.5614 H         1 UNK         0.0813 
    120 H120       29.9037   31.9897    5.4258 H         1 UNK         0.3038 
    121 H121       30.9444   29.2881    5.6726 H         1 UNK         0.0769 
    122 H122       30.2291   29.5392    8.0331 H         1 UNK         0.0811 
    123 H123       28.9470   30.0386    6.9472 H         1 UNK         0.0811 
    124 H124       29.9139   31.2525    7.7865 H         1 UNK         0.0811 
    125 H125       32.9976   30.5124    4.6497 H         1 UNK         0.3204 
    126 H126       35.1111   30.4693    6.6688 H         1 UNK         0.0748 
    127 H127       35.9869   32.7397    6.0396 H         1 UNK         0.0771 
    128 H128       34.5416   33.0416    5.0816 H         1 UNK         0.0771 
    129 H129       34.4247   32.8615    6.8309 H         1 UNK         0.0771 
    130 H130       34.9232   28.5267    5.1403 H         1 UNK         0.2980 
    131 H131       35.6549   28.7659    2.4224 H         1 UNK         0.0545 
    132 H132       37.6484   28.1928    1.2953 H         1 UNK         0.3459 
    133 H133       39.1819   28.3033    2.1214 H         1 UNK         0.3459 
    134 H134       36.1458   26.1636    3.9228 H         1 UNK         0.0616 
    135 H135       34.5237   26.7646    3.8652 H         1 UNK         0.0616 
    136 H136       33.2384   26.0303    0.4183 H         1 UNK         0.0634 
    137 H137       33.0973   27.1923    1.7167 H         1 UNK         0.0634 
@<TRIPOS>BOND
     1    1    2 1    
     2    1   72 1    
     3    1   73 1    
     4    1   74 1    
     5    2    3 2    
     6    2    4 am   BACKBONE|DICT|INTERRES
     7    4    5 1    
     8    4   75 1    
     9    5    6 1    
    10    5   35 1    
    11    5   76 1    
    12    6    7 1    
    13    6   77 1    
    14    6   78 1    
    15    7    8 1    
    16    8    9 1    
    17    8   79 1    
    18    8   80 1    
    19    9   10 ar   
    20    9   14 ar   
    21   10   11 ar   
    22   10   81 1    
    23   11   12 ar   
    24   11   71 1    
    25   12   13 ar   
    26   12   82 1    
    27   13   14 ar   
    28   13   15 1    
    29   14   83 1    
    30   15   16 1    
    31   15   84 1    
    32   15   85 1    
    33   16   17 1    
    34   17   18 1    
    35   17   86 1    
    36   17   87 1    
    37   18   19 1    
    38   18   37 1    
    39   18   88 1    
    40   19   20 am   BACKBONE|DICT|INTERRES
    41   19   89 1    
    42   20   21 2    
    43   20   22 1    
    44   22   23 1    
    45   22   24 1    
    46   22   90 1    
    47   23   91 1    
    48   23   92 1    
    49   23   93 1    
    50   24   25 am   BACKBONE|DICT|INTERRES
    51   24   94 1    
    52   25   26 2    
    53   25   27 1    
    54   27   28 1    
    55   27   29 1    
    56   27   95 1    
    57   28   96 1    
    58   28   97 1    
    59   28   98 1    
    60   29   30 am   BACKBONE|DICT|INTERRES
    61   29   99 1    
    62   30   31 2    
    63   30   32 1    
    64   32   33 1    
    65   32   34 1    
    66   32  100 1    
    67   33  101 1    
    68   33  102 1    
    69   33  103 1    
    70   34   35 am   BACKBONE|DICT|INTERRES
    71   34  104 1    
    72   35   36 2    
    73   37   38 2    
    74   37   39 am   BACKBONE|DICT|INTERRES
    75   39   40 1    
    76   39  105 1    
    77   40   41 1    
    78   40   42 1    
    79   40  106 1    
    80   41  107 1    
    81   41  108 1    
    82   41  109 1    
    83   42   43 2    
    84   42   44 am   BACKBONE|DICT|INTERRES
    85   44   45 1    
    86   44  110 1    
    87   45   46 1    
    88   45   47 1    
    89   45  111 1    
    90   46  112 1    
    91   46  113 1    
    92   46  114 1    
    93   47   48 2    
    94   47   49 am   BACKBONE|DICT|INTERRES
    95   49   50 1    
    96   49  115 1    
    97   50   51 1    
    98   50   52 1    
    99   50  116 1    
   100   51  117 1    
   101   51  118 1    
   102   51  119 1    
   103   52   53 2    
   104   52   54 am   BACKBONE|DICT|INTERRES
   105   54   55 1    
   106   54  120 1    
   107   55   56 1    
   108   55   57 1    
   109   55  121 1    
   110   56  122 1    
   111   56  123 1    
   112   56  124 1    
   113   57   58 2    
   114   57   59 am   BACKBONE|DICT|INTERRES
   115   59   60 1    
   116   59  125 1    
   117   60   61 1    
   118   60   62 1    
   119   60  126 1    
   120   61  127 1    
   121   61  128 1    
   122   61  129 1    
   123   62   63 2    
   124   62   64 am   BACKBONE|DICT|INTERRES
   125   64   65 1    
   126   64  130 1    
   127   65   66 1    
   128   65   69 1    
   129   65  131 1    
   130   66   67 am   BACKBONE|DICT|INTERRES
   131   66   68 2    
   132   67  132 1    
   133   67  133 1    
   134   69   70 1    
   135   69  134 1    
   136   69  135 1    
   137   70   71 1    
   138   71  136 1    
   139   71  137 1    
@<TRIPOS>SUBSTRUCTURE
     1 UNK         1 GROUP             0       ****    0 ROOT    
