@<TRIPOS>MOLECULE
3R136
137   139    1
SMALL
USER_CHARGES


@<TRIPOS>ATOM
      1 CA         30.4645   19.7895    0.4590 C.3       0 UNK        -0.1979 
      2 C          30.0406   20.9280   -0.4575 C.2       0 UNK         0.4864 
      3 O          30.2395   20.8427   -1.6708 O.2       0 UNK        -0.5359 
      4 N          29.4654   21.9931    0.1144 N.am      1 UNK        -0.4318 
      5 CA         28.9446   23.1536   -0.6162 C.3       1 UNK         0.0824 
      6 C6         28.8182   24.4021    0.2908 C.3       12 UNK        -0.0944 
      7 S7         30.4182   24.9383    0.9787 S.3       12 UNK        -0.2672 
      8 C8         30.3787   24.2311    2.6577 C.3       12 UNK         0.0333 
      9 C9         30.4097   25.3280    3.7089 C.ar      12 UNK        -0.0807 
     10 C10        31.6279   25.9131    4.0620 C.ar      12 UNK        -0.0894 
     11 C11        31.6771   26.9430    5.0041 C.ar      12 UNK        -0.0804 
     12 C12        30.4911   27.3844    5.5985 C.ar      12 UNK        -0.0824 
     13 C13        29.2651   26.7946    5.2706 C.ar      12 UNK        -0.0762 
     14 C14        29.2328   25.7599    4.3277 C.ar      12 UNK        -0.0782 
     15 C15        27.9899   27.2785    5.9577 C.3       12 UNK         0.0230 
     16 S16        26.5908   27.5717    4.8209 S.3       12 UNK        -0.2608 
     17 C17        27.3225   28.6961    3.5840 C.3       12 UNK        -0.0989 
     18 CA         27.2743   28.0756    2.1651 C.3       5 UNK         0.0716 
     19 N          25.8934   27.9227    1.6935 N.am      5 UNK        -0.4135 
     20 C          25.4930   27.1053    0.7138 C.2       4 UNK         0.5031 
     21 O          26.2590   26.3851    0.0685 O.2       4 UNK        -0.5229 
     22 CA         23.9965   27.1278    0.3679 C.3       4 UNK         0.0329 
     23 CB         23.6931   28.2666   -0.6190 C.3       4 UNK        -0.2001 
     24 N          23.6040   25.8597   -0.2420 N.am      4 UNK        -0.4303 
     25 C          23.3987   24.7186    0.4234 C.2       3 UNK         0.5044 
     26 O          23.3408   24.6422    1.6515 O.2       3 UNK        -0.5152 
     27 CA         23.2584   23.4388   -0.4195 C.3       3 UNK         0.0319 
     28 CB         21.9034   23.3856   -1.1531 C.3       3 UNK        -0.2001 
     29 N          24.3878   23.2053   -1.3326 N.am      3 UNK        -0.4354 
     30 C          24.7656   23.8999   -2.4154 C.2       2 UNK         0.4964 
     31 O          24.1749   24.8989   -2.8318 O.2       2 UNK        -0.5047 
     32 CA         26.0294   23.3936   -3.1410 C.3       2 UNK         0.0288 
     33 CB         26.2408   24.0832   -4.5026 C.3       2 UNK        -0.2113 
     34 N          27.2457   23.5613   -2.3393 N.am      2 UNK        -0.4145 
     35 C          27.5925   22.8161   -1.2807 C.2       1 UNK         0.5006 
     36 O          26.8859   21.9097   -0.8267 O.2       1 UNK        -0.5103 
     37 C          28.1211   28.8691    1.1483 C.2       5 UNK         0.5055 
     38 O          28.4844   30.0179    1.4010 O.2       5 UNK        -0.5220 
     39 N          28.4151   28.2393    0.0049 N.am      6 UNK        -0.4450 
     40 CA         29.1881   28.7964   -1.1088 C.3       6 UNK         0.0367 
     41 CB         29.2091   27.7756   -2.2583 C.3       6 UNK        -0.1929 
     42 C          30.6236   29.2149   -0.7381 C.2       6 UNK         0.5070 
     43 O          31.1564   30.1408   -1.3499 O.2       6 UNK        -0.5237 
     44 N          31.2158   28.5378    0.2539 N.am      7 UNK        -0.4739 
     45 CA         32.5750   28.7762    0.7425 C.3       7 UNK         0.0276 
     46 CB         33.3131   27.4273    0.8185 C.3       7 UNK        -0.1927 
     47 C          32.6039   29.5118    2.0953 C.2       7 UNK         0.5013 
     48 O          33.6375   29.4622    2.7632 O.2       7 UNK        -0.5193 
     49 N          31.5037   30.1857    2.4816 N.am      8 UNK        -0.4253 
     50 CA         31.2967   30.8647    3.7757 C.3       8 UNK         0.0242 
     51 CB         30.0174   31.7158    3.7286 C.3       8 UNK        -0.2000 
     52 C          32.4612   31.7359    4.2783 C.2       8 UNK         0.4948 
     53 O          32.7275   31.7457    5.4806 O.2       8 UNK        -0.5275 
     54 N          33.1628   32.4081    3.3554 N.am      9 UNK        -0.4246 
     55 CA         34.3508   33.2258    3.6199 C.3       9 UNK         0.0261 
     56 CB         34.8096   33.8832    2.3081 C.3       9 UNK        -0.1959 
     57 C          35.5221   32.4684    4.2784 C.2       9 UNK         0.5033 
     58 O          36.3363   33.1057    4.9480 O.2       9 UNK        -0.5390 
     59 N          35.5893   31.1403    4.1005 N.am      10 UNK        -0.4215 
     60 CA         36.5742   30.2753    4.7537 C.3       10 UNK         0.0240 
     61 CB         36.7373   28.9854    3.9324 C.3       10 UNK        -0.1982 
     62 C          36.2139   29.9399    6.2137 C.2       10 UNK         0.4970 
     63 O          37.1047   29.5260    6.9573 O.2       10 UNK        -0.4916 
     64 N          34.9397   30.1008    6.5947 N.am      11 UNK        -0.4279 
     65 CA         34.4110   29.7869    7.9317 C.3       11 UNK         0.1003 
     66 C          34.1072   31.0655    8.7555 C.2       11 UNK         0.5709 
     67 N          33.6598   32.1531    8.1398 N.am      11 UNK        -0.7358 
     68 O          34.2921   31.0741    9.9702 O.2       11 UNK        -0.4999 
     69 C69        33.1564   28.8767    7.8535 C.3       12 UNK        -0.0954 
     70 S70        33.5139   27.2658    7.0711 S.3       12 UNK        -0.2268 
     71 C71        33.0115   27.5870    5.3518 C.3       12 UNK         0.0203 
     72 H72        30.2461   20.0048    1.5049 H         1 UNK         0.0888 
     73 H73        31.5357   19.6122    0.3665 H         1 UNK         0.0888 
     74 H74        29.9418   18.8735    0.1851 H         1 UNK         0.0888 
     75 H75        29.2941   21.9896    1.1082 H         1 UNK         0.3017 
     76 H76        29.6518   23.3895   -1.4151 H         1 UNK         0.0873 
     77 H77        28.0875   24.2518    1.0879 H         1 UNK         0.0745 
     78 H78        28.4536   25.2401   -0.3013 H         1 UNK         0.0745 
     79 H79        29.5027   23.5965    2.7959 H         1 UNK         0.0705 
     80 H80        31.2443   23.5787    2.7823 H         1 UNK         0.0705 
     81 H81        32.5390   25.5703    3.5914 H         1 UNK         0.1334 
     82 H82        30.5270   28.1821    6.3271 H         1 UNK         0.1417 
     83 H83        28.2889   25.3002    4.0677 H         1 UNK         0.1562 
     84 H84        28.1777   28.2019    6.5080 H         1 UNK         0.0748 
     85 H85        27.6892   26.5366    6.6984 H         1 UNK         0.0748 
     86 H86        28.3520   28.9164    3.8697 H         1 UNK         0.0940 
     87 H87        26.7926   29.6500    3.6127 H         1 UNK         0.0940 
     88 H88        27.7228   27.0814    2.2250 H         1 UNK         0.0703 
     89 H89        25.2053   28.4960    2.1593 H         1 UNK         0.3081 
     90 H90        23.4185   27.2807    1.2819 H         1 UNK         0.0719 
     91 H91        24.2577   28.1564   -1.5462 H         1 UNK         0.0809 
     92 H92        22.6337   28.2971   -0.8746 H         1 UNK         0.0809 
     93 H93        23.9508   29.2370   -0.1929 H         1 UNK         0.0809 
     94 H94        23.7179   25.7820   -1.2497 H         1 UNK         0.2990 
     95 H95        23.2771   22.6023    0.2811 H         1 UNK         0.0690 
     96 H96        21.7802   22.4438   -1.6879 H         1 UNK         0.0788 
     97 H97        21.7911   24.1964   -1.8734 H         1 UNK         0.0788 
     98 H98        21.0771   23.4668   -0.4457 H         1 UNK         0.0788 
     99 H99        25.0225   22.4647   -1.0449 H         1 UNK         0.2993 
    100 H100       25.8847   22.3275   -3.3309 H         1 UNK         0.0949 
    101 H101       25.3646   23.9631   -5.1415 H         1 UNK         0.0767 
    102 H102       26.4191   25.1538   -4.3911 H         1 UNK         0.0767 
    103 H103       27.0892   23.6552   -5.0371 H         1 UNK         0.0767 
    104 H104       27.8599   24.3100   -2.6244 H         1 UNK         0.3013 
    105 H105       27.9762   27.3353   -0.1426 H         1 UNK         0.3121 
    106 H106       28.6663   29.6920   -1.4522 H         1 UNK         0.0774 
    107 H107       28.2001   27.5230   -2.5853 H         1 UNK         0.0815 
    108 H108       29.7110   26.8520   -1.9669 H         1 UNK         0.0815 
    109 H109       29.7389   28.1748   -3.1244 H         1 UNK         0.0815 
    110 H110       30.7015   27.7892    0.6983 H         1 UNK         0.2987 
    111 H111       33.1209   29.4093    0.0399 H         1 UNK         0.0949 
    112 H112       32.8575   26.7618    1.5504 H         1 UNK         0.0806 
    113 H113       33.3072   26.9174   -0.1449 H         1 UNK         0.0806 
    114 H114       34.3573   27.5616    1.1045 H         1 UNK         0.0806 
    115 H115       30.7024   30.1681    1.8619 H         1 UNK         0.3010 
    116 H116       31.1473   30.0818    4.5200 H         1 UNK         0.0829 
    117 H117       29.1268   31.0987    3.6379 H         1 UNK         0.0813 
    118 H118       29.8969   32.3004    4.6423 H         1 UNK         0.0813 
    119 H119       30.0276   32.4157    2.8924 H         1 UNK         0.0813 
    120 H120       32.8760   32.3232    2.3911 H         1 UNK         0.3038 
    121 H121       34.0516   34.0152    4.3124 H         1 UNK         0.0769 
    122 H122       35.0928   33.1395    1.5620 H         1 UNK         0.0811 
    123 H123       35.6768   34.5240    2.4746 H         1 UNK         0.0811 
    124 H124       34.0257   34.5088    1.8806 H         1 UNK         0.0811 
    125 H125       34.8744   30.6724    3.5453 H         1 UNK         0.3204 
    126 H126       37.5379   30.7892    4.7646 H         1 UNK         0.0748 
    127 H127       37.0205   29.2028    2.9024 H         1 UNK         0.0771 
    128 H128       37.5156   28.3488    4.3555 H         1 UNK         0.0771 
    129 H129       35.8171   28.4011    3.9100 H         1 UNK         0.0771 
    130 H130       34.2789   30.5202    5.9520 H         1 UNK         0.2980 
    131 H131       35.1646   29.2367    8.4983 H         1 UNK         0.0545 
    132 H132       33.4721   32.9833    8.6781 H         1 UNK         0.3459 
    133 H133       33.4171   32.1219    7.1530 H         1 UNK         0.3459 
    134 H134       32.7770   28.6694    8.8558 H         1 UNK         0.0616 
    135 H135       32.3461   29.3790    7.3224 H         1 UNK         0.0616 
    136 H136       33.7971   27.2151    4.6930 H         1 UNK         0.0634 
    137 H137       32.9557   28.6590    5.1712 H         1 UNK         0.0634 
@<TRIPOS>BOND
     1    1    2 1    
     2    1   72 1    
     3    1   73 1    
     4    1   74 1    
     5    2    3 2    
     6    2    4 am   BACKBONE|DICT|INTERRES
     7    4    5 1    
     8    4   75 1    
     9    5    6 1    
    10    5   35 1    
    11    5   76 1    
    12    6    7 1    
    13    6   77 1    
    14    6   78 1    
    15    7    8 1    
    16    8    9 1    
    17    8   79 1    
    18    8   80 1    
    19    9   10 ar   
    20    9   14 ar   
    21   10   11 ar   
    22   10   81 1    
    23   11   12 ar   
    24   11   71 1    
    25   12   13 ar   
    26   12   82 1    
    27   13   14 ar   
    28   13   15 1    
    29   14   83 1    
    30   15   16 1    
    31   15   84 1    
    32   15   85 1    
    33   16   17 1    
    34   17   18 1    
    35   17   86 1    
    36   17   87 1    
    37   18   19 1    
    38   18   37 1    
    39   18   88 1    
    40   19   20 am   BACKBONE|DICT|INTERRES
    41   19   89 1    
    42   20   21 2    
    43   20   22 1    
    44   22   23 1    
    45   22   24 1    
    46   22   90 1    
    47   23   91 1    
    48   23   92 1    
    49   23   93 1    
    50   24   25 am   BACKBONE|DICT|INTERRES
    51   24   94 1    
    52   25   26 2    
    53   25   27 1    
    54   27   28 1    
    55   27   29 1    
    56   27   95 1    
    57   28   96 1    
    58   28   97 1    
    59   28   98 1    
    60   29   30 am   BACKBONE|DICT|INTERRES
    61   29   99 1    
    62   30   31 2    
    63   30   32 1    
    64   32   33 1    
    65   32   34 1    
    66   32  100 1    
    67   33  101 1    
    68   33  102 1    
    69   33  103 1    
    70   34   35 am   BACKBONE|DICT|INTERRES
    71   34  104 1    
    72   35   36 2    
    73   37   38 2    
    74   37   39 am   BACKBONE|DICT|INTERRES
    75   39   40 1    
    76   39  105 1    
    77   40   41 1    
    78   40   42 1    
    79   40  106 1    
    80   41  107 1    
    81   41  108 1    
    82   41  109 1    
    83   42   43 2    
    84   42   44 am   BACKBONE|DICT|INTERRES
    85   44   45 1    
    86   44  110 1    
    87   45   46 1    
    88   45   47 1    
    89   45  111 1    
    90   46  112 1    
    91   46  113 1    
    92   46  114 1    
    93   47   48 2    
    94   47   49 am   BACKBONE|DICT|INTERRES
    95   49   50 1    
    96   49  115 1    
    97   50   51 1    
    98   50   52 1    
    99   50  116 1    
   100   51  117 1    
   101   51  118 1    
   102   51  119 1    
   103   52   53 2    
   104   52   54 am   BACKBONE|DICT|INTERRES
   105   54   55 1    
   106   54  120 1    
   107   55   56 1    
   108   55   57 1    
   109   55  121 1    
   110   56  122 1    
   111   56  123 1    
   112   56  124 1    
   113   57   58 2    
   114   57   59 am   BACKBONE|DICT|INTERRES
   115   59   60 1    
   116   59  125 1    
   117   60   61 1    
   118   60   62 1    
   119   60  126 1    
   120   61  127 1    
   121   61  128 1    
   122   61  129 1    
   123   62   63 2    
   124   62   64 am   BACKBONE|DICT|INTERRES
   125   64   65 1    
   126   64  130 1    
   127   65   66 1    
   128   65   69 1    
   129   65  131 1    
   130   66   67 am   BACKBONE|DICT|INTERRES
   131   66   68 2    
   132   67  132 1    
   133   67  133 1    
   134   69   70 1    
   135   69  134 1    
   136   69  135 1    
   137   70   71 1    
   138   71  136 1    
   139   71  137 1    
@<TRIPOS>SUBSTRUCTURE
     1 UNK         1 GROUP             0       ****    0 ROOT    
