@<TRIPOS>MOLECULE
3R136
137   139    1
SMALL
USER_CHARGES


@<TRIPOS>ATOM
      1 CA         32.3104   22.4759   -3.5654 C.3       0 UNK        -0.1979 
      2 C          31.8348   23.6081   -2.6670 C.2       0 UNK         0.4864 
      3 O          31.8372   24.7650   -3.0883 O.2       0 UNK        -0.5359 
      4 N          31.4268   23.2829   -1.4330 N.am      1 UNK        -0.4318 
      5 CA         30.9491   24.2426   -0.4284 C.3       1 UNK         0.0824 
      6 C6         30.9940   23.6474    1.0000 C.3       12 UNK        -0.0944 
      7 S7         32.6526   23.1150    1.5400 S.3       12 UNK        -0.2672 
      8 C8         32.2344   22.0124    2.9322 C.3       12 UNK         0.0333 
      9 C9         31.5961   22.7663    4.0928 C.ar      12 UNK        -0.0807 
     10 C10        32.3807   23.2496    5.1450 C.ar      12 UNK        -0.0894 
     11 C11        31.7944   23.9502    6.2054 C.ar      12 UNK        -0.0804 
     12 C12        30.4129   24.1704    6.2037 C.ar      12 UNK        -0.0824 
     13 C13        29.6185   23.6885    5.1594 C.ar      12 UNK        -0.0762 
     14 C14        30.2138   22.9726    4.1184 C.ar      12 UNK        -0.0782 
     15 C15        28.1180   23.9476    5.1422 C.3       12 UNK         0.0230 
     16 S16        27.7187   25.7015    4.8504 S.3       12 UNK        -0.2608 
     17 C17        28.6787   26.0693    3.3363 C.3       12 UNK        -0.0989 
     18 CA         28.3912   27.4615    2.7206 C.3       5 UNK         0.0716 
     19 N          26.9926   27.5919    2.2967 N.am      5 UNK        -0.4135 
     20 C          26.4502   28.6498    1.6821 C.2       4 UNK         0.5031 
     21 O          27.0565   29.6962    1.4433 O.2       4 UNK        -0.5229 
     22 CA         24.9827   28.5001    1.2525 C.3       4 UNK         0.0329 
     23 CB         24.2683   29.8574    1.1260 C.3       4 UNK        -0.2001 
     24 N          24.8939   27.7970   -0.0265 N.am      4 UNK        -0.4303 
     25 C          24.9472   26.4670   -0.1746 C.2       3 UNK         0.5044 
     26 O          25.1067   25.6787    0.7578 O.2       3 UNK        -0.5152 
     27 CA         24.8006   25.9281   -1.6058 C.3       3 UNK         0.0319 
     28 CB         23.5005   26.4193   -2.2683 C.3       3 UNK        -0.2001 
     29 N          25.9468   26.3132   -2.4337 N.am      3 UNK        -0.4354 
     30 C          27.1229   25.6779   -2.5569 C.2       2 UNK         0.4964 
     31 O          28.0128   26.1236   -3.2819 O.2       2 UNK        -0.5047 
     32 CA         27.3456   24.3222   -1.8464 C.3       2 UNK         0.0288 
     33 CB         26.8105   23.1686   -2.7142 C.3       2 UNK        -0.2113 
     34 N          28.7526   24.0496   -1.5427 N.am      2 UNK        -0.4145 
     35 C          29.5224   24.7661   -0.7102 C.2       1 UNK         0.5006 
     36 O          29.1328   25.7768   -0.1248 O.2       1 UNK        -0.5103 
     37 C          28.8899   28.6056    3.6286 C.2       5 UNK         0.5055 
     38 O          30.0230   29.0597    3.4601 O.2       5 UNK        -0.5220 
     39 N          28.0311   29.0636    4.5502 N.am      6 UNK        -0.4450 
     40 CA         28.3116   30.1574    5.4805 C.3       6 UNK         0.0367 
     41 CB         27.2863   30.1293    6.6248 C.3       6 UNK        -0.1929 
     42 C          28.3223   31.5356    4.8001 C.2       6 UNK         0.5070 
     43 O          29.1218   32.3871    5.1864 O.2       6 UNK        -0.5237 
     44 N          27.4558   31.7304    3.7951 N.am      7 UNK        -0.4739 
     45 CA         27.3857   32.9593    2.9975 C.3       7 UNK         0.0276 
     46 CB         26.0336   33.0375    2.2725 C.3       7 UNK        -0.1927 
     47 C          28.5462   33.0482    1.9956 C.2       7 UNK         0.5013 
     48 O          29.1047   34.1290    1.8057 O.2       7 UNK        -0.5193 
     49 N          28.9096   31.9006    1.4056 N.am      8 UNK        -0.4253 
     50 CA         30.0893   31.7317    0.5547 C.3       8 UNK         0.0242 
     51 CB         29.9872   30.3783   -0.1693 C.3       8 UNK        -0.2000 
     52 C          31.4174   31.8174    1.3313 C.2       8 UNK         0.4948 
     53 O          32.4509   32.0772    0.7141 O.2       8 UNK        -0.5275 
     54 N          31.3640   31.5733    2.6510 N.am      9 UNK        -0.4246 
     55 CA         32.4818   31.4374    3.5919 C.3       9 UNK         0.0261 
     56 CB         33.2221   32.7788    3.7748 C.3       9 UNK        -0.1959 
     57 C          33.4124   30.2745    3.1996 C.2       9 UNK         0.5033 
     58 O          34.6362   30.4202    3.2328 O.2       9 UNK        -0.5390 
     59 N          32.8028   29.1404    2.8228 N.am      10 UNK        -0.4215 
     60 CA         33.4525   27.9745    2.2127 C.3       10 UNK         0.0240 
     61 CB         32.3806   26.9394    1.8446 C.3       10 UNK        -0.1982 
     62 C          34.5518   27.3206    3.0678 C.2       10 UNK         0.4970 
     63 O          35.4968   26.7634    2.5077 O.2       10 UNK        -0.4916 
     64 N          34.4128   27.4188    4.3924 N.am      11 UNK        -0.4279 
     65 CA         35.3882   26.9751    5.3956 C.3       11 UNK         0.1003 
     66 C          35.9586   28.1483    6.2455 C.2       11 UNK         0.5709 
     67 N          35.8121   29.4018    5.8279 N.am      11 UNK        -0.7358 
     68 O          36.5685   27.9244    7.2887 O.2       11 UNK        -0.4999 
     69 C69        34.8381   25.7911    6.2353 C.3       12 UNK        -0.0954 
     70 S70        33.2629   26.1382    7.0924 S.3       12 UNK        -0.2268 
     71 C71        32.6393   24.4505    7.3694 C.3       12 UNK         0.0203 
     72 H72        33.3439   22.6454   -3.8663 H         1 UNK         0.0888 
     73 H73        32.2577   21.5086   -3.0659 H         1 UNK         0.0888 
     74 H74        31.6970   22.4272   -4.4647 H         1 UNK         0.0888 
     75 H75        31.4767   22.3207   -1.1286 H         1 UNK         0.3017 
     76 H76        31.6093   25.1114   -0.4580 H         1 UNK         0.0873 
     77 H77        30.3138   22.7965    1.0697 H         1 UNK         0.0745 
     78 H78        30.6463   24.3862    1.7238 H         1 UNK         0.0745 
     79 H79        33.1449   21.5143    3.2688 H         1 UNK         0.0705 
     80 H80        31.5692   21.2208    2.5837 H         1 UNK         0.0705 
     81 H81        33.4472   23.0742    5.1381 H         1 UNK         0.1334 
     82 H82        29.9539   24.7222    7.0129 H         1 UNK         0.1417 
     83 H83        29.5999   22.5901    3.3152 H         1 UNK         0.1562 
     84 H84        27.6872   23.6401    6.0961 H         1 UNK         0.0748 
     85 H85        27.6277   23.3434    4.3772 H         1 UNK         0.0748 
     86 H86        29.7412   25.9750    3.5660 H         1 UNK         0.0940 
     87 H87        28.4658   25.2951    2.5973 H         1 UNK         0.0940 
     88 H88        28.9832   27.5370    1.8070 H         1 UNK         0.0703 
     89 H89        26.4218   26.7635    2.4033 H         1 UNK         0.3081 
     90 H90        24.4600   27.9237    2.0193 H         1 UNK         0.0719 
     91 H91        24.7134   30.4810    0.3496 H         1 UNK         0.0809 
     92 H92        23.2133   29.7274    0.8844 H         1 UNK         0.0809 
     93 H93        24.3172   30.4121    2.0637 H         1 UNK         0.0809 
     94 H94        24.8065   28.3744   -0.8496 H         1 UNK         0.2990 
     95 H95        24.7231   24.8423   -1.5444 H         1 UNK         0.0690 
     96 H96        22.6339   26.1880   -1.6471 H         1 UNK         0.0788 
     97 H97        23.5006   27.4959   -2.4415 H         1 UNK         0.0788 
     98 H98        23.3438   25.9312   -3.2306 H         1 UNK         0.0788 
     99 H99        25.8433   27.1823   -2.9364 H         1 UNK         0.2993 
    100 H100       26.8257   24.3222   -0.8882 H         1 UNK         0.0949 
    101 H101       25.7604   23.3124   -2.9705 H         1 UNK         0.0767 
    102 H102       27.3606   23.0852   -3.6525 H         1 UNK         0.0767 
    103 H103       26.8856   22.2129   -2.1948 H         1 UNK         0.0767 
    104 H104       29.1677   23.2519   -1.9994 H         1 UNK         0.3013 
    105 H105       27.1345   28.6064    4.6317 H         1 UNK         0.3121 
    106 H106       29.3032   29.9924    5.9082 H         1 UNK         0.0774 
    107 H107       27.4893   30.9200    7.3486 H         1 UNK         0.0815 
    108 H108       26.2680   30.2740    6.2616 H         1 UNK         0.0815 
    109 H109       27.3200   29.1824    7.1642 H         1 UNK         0.0815 
    110 H110       26.8720   30.9605    3.5000 H         1 UNK         0.2987 
    111 H111       27.4592   33.8150    3.6730 H         1 UNK         0.0949 
    112 H112       25.9282   32.2465    1.5305 H         1 UNK         0.0806 
    113 H113       25.1999   32.9617    2.9707 H         1 UNK         0.0806 
    114 H114       25.9313   33.9879    1.7470 H         1 UNK         0.0806 
    115 H115       28.3348   31.0744    1.5603 H         1 UNK         0.3010 
    116 H116       30.0894   32.5279   -0.1927 H         1 UNK         0.0829 
    117 H117       30.8320   30.2292   -0.8431 H         1 UNK         0.0813 
    118 H118       29.9799   29.5448    0.5344 H         1 UNK         0.0813 
    119 H119       29.0784   30.3155   -0.7683 H         1 UNK         0.0813 
    120 H120       30.4596   31.3242    3.0290 H         1 UNK         0.3038 
    121 H121       32.0410   31.1681    4.5531 H         1 UNK         0.0769 
    122 H122       33.9741   32.7044    4.5613 H         1 UNK         0.0811 
    123 H123       32.5334   33.5745    4.0585 H         1 UNK         0.0811 
    124 H124       33.7355   33.0873    2.8636 H         1 UNK         0.0811 
    125 H125       31.7875   29.1052    2.9074 H         1 UNK         0.3204 
    126 H126       33.9243   28.3199    1.2906 H         1 UNK         0.0748 
    127 H127       32.8336   26.0939    1.3276 H         1 UNK         0.0771 
    128 H128       31.8800   26.5485    2.7307 H         1 UNK         0.0771 
    129 H129       31.6225   27.3588    1.1826 H         1 UNK         0.0771 
    130 H130       33.6027   27.8955    4.7596 H         1 UNK         0.2980 
    131 H131       36.2704   26.5927    4.8798 H         1 UNK         0.0545 
    132 H132       35.3877   29.6117    4.9311 H         1 UNK         0.3459 
    133 H133       36.1960   30.1482    6.3850 H         1 UNK         0.3459 
    134 H134       35.5719   25.4621    6.9730 H         1 UNK         0.0616 
    135 H135       34.6913   24.9403    5.5711 H         1 UNK         0.0616 
    136 H136       33.4728   23.7717    7.5566 H         1 UNK         0.0634 
    137 H137       32.0416   24.4496    8.2822 H         1 UNK         0.0634 
@<TRIPOS>BOND
     1    1    2 1    
     2    1   72 1    
     3    1   73 1    
     4    1   74 1    
     5    2    3 2    
     6    2    4 am   BACKBONE|DICT|INTERRES
     7    4    5 1    
     8    4   75 1    
     9    5    6 1    
    10    5   35 1    
    11    5   76 1    
    12    6    7 1    
    13    6   77 1    
    14    6   78 1    
    15    7    8 1    
    16    8    9 1    
    17    8   79 1    
    18    8   80 1    
    19    9   10 ar   
    20    9   14 ar   
    21   10   11 ar   
    22   10   81 1    
    23   11   12 ar   
    24   11   71 1    
    25   12   13 ar   
    26   12   82 1    
    27   13   14 ar   
    28   13   15 1    
    29   14   83 1    
    30   15   16 1    
    31   15   84 1    
    32   15   85 1    
    33   16   17 1    
    34   17   18 1    
    35   17   86 1    
    36   17   87 1    
    37   18   19 1    
    38   18   37 1    
    39   18   88 1    
    40   19   20 am   BACKBONE|DICT|INTERRES
    41   19   89 1    
    42   20   21 2    
    43   20   22 1    
    44   22   23 1    
    45   22   24 1    
    46   22   90 1    
    47   23   91 1    
    48   23   92 1    
    49   23   93 1    
    50   24   25 am   BACKBONE|DICT|INTERRES
    51   24   94 1    
    52   25   26 2    
    53   25   27 1    
    54   27   28 1    
    55   27   29 1    
    56   27   95 1    
    57   28   96 1    
    58   28   97 1    
    59   28   98 1    
    60   29   30 am   BACKBONE|DICT|INTERRES
    61   29   99 1    
    62   30   31 2    
    63   30   32 1    
    64   32   33 1    
    65   32   34 1    
    66   32  100 1    
    67   33  101 1    
    68   33  102 1    
    69   33  103 1    
    70   34   35 am   BACKBONE|DICT|INTERRES
    71   34  104 1    
    72   35   36 2    
    73   37   38 2    
    74   37   39 am   BACKBONE|DICT|INTERRES
    75   39   40 1    
    76   39  105 1    
    77   40   41 1    
    78   40   42 1    
    79   40  106 1    
    80   41  107 1    
    81   41  108 1    
    82   41  109 1    
    83   42   43 2    
    84   42   44 am   BACKBONE|DICT|INTERRES
    85   44   45 1    
    86   44  110 1    
    87   45   46 1    
    88   45   47 1    
    89   45  111 1    
    90   46  112 1    
    91   46  113 1    
    92   46  114 1    
    93   47   48 2    
    94   47   49 am   BACKBONE|DICT|INTERRES
    95   49   50 1    
    96   49  115 1    
    97   50   51 1    
    98   50   52 1    
    99   50  116 1    
   100   51  117 1    
   101   51  118 1    
   102   51  119 1    
   103   52   53 2    
   104   52   54 am   BACKBONE|DICT|INTERRES
   105   54   55 1    
   106   54  120 1    
   107   55   56 1    
   108   55   57 1    
   109   55  121 1    
   110   56  122 1    
   111   56  123 1    
   112   56  124 1    
   113   57   58 2    
   114   57   59 am   BACKBONE|DICT|INTERRES
   115   59   60 1    
   116   59  125 1    
   117   60   61 1    
   118   60   62 1    
   119   60  126 1    
   120   61  127 1    
   121   61  128 1    
   122   61  129 1    
   123   62   63 2    
   124   62   64 am   BACKBONE|DICT|INTERRES
   125   64   65 1    
   126   64  130 1    
   127   65   66 1    
   128   65   69 1    
   129   65  131 1    
   130   66   67 am   BACKBONE|DICT|INTERRES
   131   66   68 2    
   132   67  132 1    
   133   67  133 1    
   134   69   70 1    
   135   69  134 1    
   136   69  135 1    
   137   70   71 1    
   138   71  136 1    
   139   71  137 1    
@<TRIPOS>SUBSTRUCTURE
     1 UNK         1 GROUP             0       ****    0 ROOT    
