@<TRIPOS>MOLECULE
3R136
137   139    1
SMALL
USER_CHARGES


@<TRIPOS>ATOM
      1 CA         29.1609   23.3297    4.7636 C.3       0 UNK        -0.1979 
      2 C          29.5090   23.0409    3.3108 C.2       0 UNK         0.4864 
      3 O          29.7342   21.8829    2.9545 O.2       0 UNK        -0.5359 
      4 N          29.5535   24.0848    2.4744 N.am      1 UNK        -0.4318 
      5 CA         29.7550   23.9955    1.0245 C.3       1 UNK         0.0824 
      6 C6         30.2241   25.3549    0.4417 C.3       12 UNK        -0.0944 
      7 S7         31.9604   25.7008    0.8743 S.3       12 UNK        -0.2672 
      8 C8         31.8477   27.3309    1.6817 C.3       12 UNK         0.0333 
      9 C9         31.2755   27.2856    3.0949 C.ar      12 UNK        -0.0807 
     10 C10        31.7278   26.3435    4.0265 C.ar      12 UNK        -0.0894 
     11 C11        31.2402   26.3508    5.3359 C.ar      12 UNK        -0.0804 
     12 C12        30.3043   27.3161    5.7180 C.ar      12 UNK        -0.0824 
     13 C13        29.8597   28.2761    4.8054 C.ar      12 UNK        -0.0762 
     14 C14        30.3405   28.2472    3.4930 C.ar      12 UNK        -0.0782 
     15 C15        28.9235   29.3844    5.2664 C.3       12 UNK         0.0230 
     16 S16        27.1711   28.9137    5.1076 S.3       12 UNK        -0.2608 
     17 C17        26.6482   29.8622    3.6370 C.3       12 UNK        -0.0989 
     18 CA         26.7181   29.0226    2.3394 C.3       5 UNK         0.0716 
     19 N          25.8597   27.8363    2.3982 N.am      5 UNK        -0.4135 
     20 C          26.0431   26.7259    1.6753 C.2       4 UNK         0.5031 
     21 O          26.9822   26.5906    0.8879 O.2       4 UNK        -0.5229 
     22 CA         25.0304   25.5788    1.8531 C.3       4 UNK         0.0329 
     23 CB         23.7236   25.9814    2.5757 C.3       4 UNK        -0.2001 
     24 N          24.7480   24.9172    0.5754 N.am      4 UNK        -0.4303 
     25 C          24.1772   25.4523   -0.5164 C.2       3 UNK         0.5044 
     26 O          23.7186   26.5953   -0.5648 O.2       3 UNK        -0.5152 
     27 CA         24.0924   24.5371   -1.7587 C.3       3 UNK         0.0319 
     28 CB         23.8725   25.3156   -3.0745 C.3       3 UNK        -0.2001 
     29 N          25.2303   23.6117   -1.8643 N.am      3 UNK        -0.4354 
     30 C          26.5195   23.9421   -2.0321 C.2       2 UNK         0.4964 
     31 O          26.9270   25.0804   -2.2720 O.2       2 UNK        -0.5047 
     32 CA         27.5357   22.7960   -1.8883 C.3       2 UNK         0.0288 
     33 CB         28.1053   22.3942   -3.2587 C.3       2 UNK        -0.2113 
     34 N          28.6330   23.1786   -0.9964 N.am      2 UNK        -0.4145 
     35 C          28.4898   23.4714    0.3055 C.2       1 UNK         0.5006 
     36 O          27.4238   23.3347    0.9156 O.2       1 UNK        -0.5103 
     37 C          26.4306   29.8549    1.0703 C.2       5 UNK         0.5055 
     38 O          26.0084   31.0093    1.1607 O.2       5 UNK        -0.5220 
     39 N          26.6768   29.2464   -0.0970 N.am      6 UNK        -0.4450 
     40 CA         26.6605   29.8879   -1.4150 C.3       6 UNK         0.0367 
     41 CB         26.5508   28.7966   -2.4922 C.3       6 UNK        -0.1929 
     42 C          27.9007   30.7729   -1.6562 C.2       6 UNK         0.5070 
     43 O          27.8964   31.5902   -2.5771 O.2       6 UNK        -0.5237 
     44 N          28.9292   30.5968   -0.8212 N.am      7 UNK        -0.4739 
     45 CA         30.1423   31.3996   -0.7294 C.3       7 UNK         0.0276 
     46 CB         31.2993   30.6266   -1.3902 C.3       7 UNK        -0.1927 
     47 C          30.4197   31.6761    0.7582 C.2       7 UNK         0.5013 
     48 O          29.6586   31.2244    1.6205 O.2       7 UNK        -0.5193 
     49 N          31.5105   32.4024    1.0354 N.am      8 UNK        -0.4253 
     50 CA         32.0258   32.6607    2.3846 C.3       8 UNK         0.0242 
     51 CB         33.1946   33.6556    2.2853 C.3       8 UNK        -0.2000 
     52 C          32.4785   31.3718    3.0966 C.2       8 UNK         0.4948 
     53 O          32.7535   30.3691    2.4328 O.2       8 UNK        -0.5275 
     54 N          32.5709   31.4304    4.4328 N.am      9 UNK        -0.4246 
     55 CA         32.9228   30.3212    5.3288 C.3       9 UNK         0.0261 
     56 CB         32.5472   30.7015    6.7726 C.3       9 UNK        -0.1959 
     57 C          34.3848   29.8479    5.2019 C.2       9 UNK         0.5033 
     58 O          35.1566   29.9326    6.1600 O.2       9 UNK        -0.5390 
     59 N          34.7286   29.3255    4.0191 N.am      10 UNK        -0.4215 
     60 CA         36.0330   28.7709    3.6457 C.3       10 UNK         0.0240 
     61 CB         36.0007   28.3844    2.1580 C.3       10 UNK        -0.1982 
     62 C          36.4866   27.5735    4.5012 C.2       10 UNK         0.4970 
     63 O          37.6840   27.2872    4.5372 O.2       10 UNK        -0.4916 
     64 N          35.5412   26.9099    5.1799 N.am      11 UNK        -0.4279 
     65 CA         35.8072   25.8769    6.1880 C.3       11 UNK         0.1003 
     66 C          36.4695   26.3981    7.5006 C.2       11 UNK         0.5709 
     67 N          36.4925   27.6999    7.7695 N.am      11 UNK        -0.7358 
     68 O          36.9849   25.6022    8.2823 O.2       11 UNK        -0.4999 
     69 C69        34.5463   25.0156    6.4614 C.3       12 UNK        -0.0954 
     70 S70        33.1748   25.9243    7.2611 S.3       12 UNK        -0.2268 
     71 C71        31.7221   25.3236    6.3468 C.3       12 UNK         0.0203 
     72 H72        29.9418   22.9495    5.4210 H         1 UNK         0.0888 
     73 H73        29.0450   24.3972    4.9505 H         1 UNK         0.0888 
     74 H74        28.2254   22.8375    5.0275 H         1 UNK         0.0888 
     75 H75        29.3613   25.0117    2.8250 H         1 UNK         0.3017 
     76 H76        30.5363   23.2546    0.8400 H         1 UNK         0.0873 
     77 H77        29.5808   26.1665    0.7849 H         1 UNK         0.0745 
     78 H78        30.1665   25.3709   -0.6479 H         1 UNK         0.0745 
     79 H79        31.2685   28.0031    1.0466 H         1 UNK         0.0705 
     80 H80        32.8505   27.7540    1.7350 H         1 UNK         0.0705 
     81 H81        32.4643   25.6078    3.7340 H         1 UNK         0.1334 
     82 H82        29.9400   27.3357    6.7363 H         1 UNK         0.1417 
     83 H83        30.0230   29.0059    2.7927 H         1 UNK         0.1562 
     84 H84        29.1351   30.3044    4.7196 H         1 UNK         0.0748 
     85 H85        29.1226   29.6155    6.3140 H         1 UNK         0.0748 
     86 H86        27.2620   30.7607    3.5472 H         1 UNK         0.0940 
     87 H87        25.6296   30.2170    3.8054 H         1 UNK         0.0940 
     88 H88        27.7507   28.6826    2.2437 H         1 UNK         0.0703 
     89 H89        25.0637   27.8900    3.0158 H         1 UNK         0.3081 
     90 H90        25.5325   24.8330    2.4710 H         1 UNK         0.0719 
     91 H91        23.9172   26.2976    3.6013 H         1 UNK         0.0809 
     92 H92        23.0341   25.1390    2.6327 H         1 UNK         0.0809 
     93 H93        23.2057   26.7954    2.0671 H         1 UNK         0.0809 
     94 H94        25.1745   24.0054    0.4766 H         1 UNK         0.2990 
     95 H95        23.2117   23.9122   -1.6035 H         1 UNK         0.0690 
     96 H96        23.8100   24.6418   -3.9288 H         1 UNK         0.0788 
     97 H97        24.6755   26.0275   -3.2663 H         1 UNK         0.0788 
     98 H98        22.9412   25.8822   -3.0413 H         1 UNK         0.0788 
     99 H99        25.0087   22.6397   -1.6946 H         1 UNK         0.2993 
    100 H100       27.0392   21.9269   -1.4510 H         1 UNK         0.0949 
    101 H101       28.6327   23.2220   -3.7351 H         1 UNK         0.0767 
    102 H102       28.7997   21.5582   -3.1715 H         1 UNK         0.0767 
    103 H103       27.3083   22.0834   -3.9357 H         1 UNK         0.0767 
    104 H104       29.5311   23.3281   -1.4323 H         1 UNK         0.3013 
    105 H105       26.9518   28.2668   -0.0612 H         1 UNK         0.3121 
    106 H106       25.7788   30.5289   -1.4799 H         1 UNK         0.0774 
    107 H107       26.5064   29.2337   -3.4905 H         1 UNK         0.0815 
    108 H108       27.4044   28.1175   -2.4688 H         1 UNK         0.0815 
    109 H109       25.6483   28.1993   -2.3586 H         1 UNK         0.0815 
    110 H110       28.7960   29.9665   -0.0426 H         1 UNK         0.2987 
    111 H111       29.9994   32.3587   -1.2323 H         1 UNK         0.0949 
    112 H112       31.0636   30.3710   -2.4235 H         1 UNK         0.0806 
    113 H113       32.2156   31.2172   -1.4088 H         1 UNK         0.0806 
    114 H114       31.5192   29.6994   -0.8594 H         1 UNK         0.0806 
    115 H115       32.0909   32.7108    0.2697 H         1 UNK         0.3010 
    116 H116       31.2216   33.1114    2.9701 H         1 UNK         0.0829 
    117 H117       32.8842   34.5877    1.8125 H         1 UNK         0.0813 
    118 H118       33.5819   33.9114    3.2724 H         1 UNK         0.0813 
    119 H119       34.0243   33.2455    1.7075 H         1 UNK         0.0813 
    120 H120       32.3695   32.3107    4.8848 H         1 UNK         0.3038 
    121 H121       32.3091   29.4649    5.0532 H         1 UNK         0.0769 
    122 H122       33.1118   31.5663    7.1228 H         1 UNK         0.0811 
    123 H123       32.7524   29.8774    7.4577 H         1 UNK         0.0811 
    124 H124       31.4854   30.9323    6.8594 H         1 UNK         0.0811 
    125 H125       34.0304   29.4025    3.2796 H         1 UNK         0.3204 
    126 H126       36.7721   29.5628    3.7812 H         1 UNK         0.0748 
    127 H127       36.9788   28.0356    1.8236 H         1 UNK         0.0771 
    128 H128       35.2865   27.5829    1.9656 H         1 UNK         0.0771 
    129 H129       35.7291   29.2343    1.5312 H         1 UNK         0.0771 
    130 H130       34.5838   27.2182    5.1065 H         1 UNK         0.2980 
    131 H131       36.5455   25.2044    5.7470 H         1 UNK         0.0545 
    132 H132       36.9295   28.0173    8.6196 H         1 UNK         0.3459 
    133 H133       36.0574   28.3715    7.1466 H         1 UNK         0.3459 
    134 H134       34.8015   24.1648    7.0955 H         1 UNK         0.0616 
    135 H135       34.2003   24.5854    5.5207 H         1 UNK         0.0616 
    136 H136       30.9267   25.1122    7.0631 H         1 UNK         0.0634 
    137 H137       31.9408   24.3745    5.8562 H         1 UNK         0.0634 
@<TRIPOS>BOND
     1    1    2 1    
     2    1   72 1    
     3    1   73 1    
     4    1   74 1    
     5    2    3 2    
     6    2    4 am   BACKBONE|DICT|INTERRES
     7    4    5 1    
     8    4   75 1    
     9    5    6 1    
    10    5   35 1    
    11    5   76 1    
    12    6    7 1    
    13    6   77 1    
    14    6   78 1    
    15    7    8 1    
    16    8    9 1    
    17    8   79 1    
    18    8   80 1    
    19    9   10 ar   
    20    9   14 ar   
    21   10   11 ar   
    22   10   81 1    
    23   11   12 ar   
    24   11   71 1    
    25   12   13 ar   
    26   12   82 1    
    27   13   14 ar   
    28   13   15 1    
    29   14   83 1    
    30   15   16 1    
    31   15   84 1    
    32   15   85 1    
    33   16   17 1    
    34   17   18 1    
    35   17   86 1    
    36   17   87 1    
    37   18   19 1    
    38   18   37 1    
    39   18   88 1    
    40   19   20 am   BACKBONE|DICT|INTERRES
    41   19   89 1    
    42   20   21 2    
    43   20   22 1    
    44   22   23 1    
    45   22   24 1    
    46   22   90 1    
    47   23   91 1    
    48   23   92 1    
    49   23   93 1    
    50   24   25 am   BACKBONE|DICT|INTERRES
    51   24   94 1    
    52   25   26 2    
    53   25   27 1    
    54   27   28 1    
    55   27   29 1    
    56   27   95 1    
    57   28   96 1    
    58   28   97 1    
    59   28   98 1    
    60   29   30 am   BACKBONE|DICT|INTERRES
    61   29   99 1    
    62   30   31 2    
    63   30   32 1    
    64   32   33 1    
    65   32   34 1    
    66   32  100 1    
    67   33  101 1    
    68   33  102 1    
    69   33  103 1    
    70   34   35 am   BACKBONE|DICT|INTERRES
    71   34  104 1    
    72   35   36 2    
    73   37   38 2    
    74   37   39 am   BACKBONE|DICT|INTERRES
    75   39   40 1    
    76   39  105 1    
    77   40   41 1    
    78   40   42 1    
    79   40  106 1    
    80   41  107 1    
    81   41  108 1    
    82   41  109 1    
    83   42   43 2    
    84   42   44 am   BACKBONE|DICT|INTERRES
    85   44   45 1    
    86   44  110 1    
    87   45   46 1    
    88   45   47 1    
    89   45  111 1    
    90   46  112 1    
    91   46  113 1    
    92   46  114 1    
    93   47   48 2    
    94   47   49 am   BACKBONE|DICT|INTERRES
    95   49   50 1    
    96   49  115 1    
    97   50   51 1    
    98   50   52 1    
    99   50  116 1    
   100   51  117 1    
   101   51  118 1    
   102   51  119 1    
   103   52   53 2    
   104   52   54 am   BACKBONE|DICT|INTERRES
   105   54   55 1    
   106   54  120 1    
   107   55   56 1    
   108   55   57 1    
   109   55  121 1    
   110   56  122 1    
   111   56  123 1    
   112   56  124 1    
   113   57   58 2    
   114   57   59 am   BACKBONE|DICT|INTERRES
   115   59   60 1    
   116   59  125 1    
   117   60   61 1    
   118   60   62 1    
   119   60  126 1    
   120   61  127 1    
   121   61  128 1    
   122   61  129 1    
   123   62   63 2    
   124   62   64 am   BACKBONE|DICT|INTERRES
   125   64   65 1    
   126   64  130 1    
   127   65   66 1    
   128   65   69 1    
   129   65  131 1    
   130   66   67 am   BACKBONE|DICT|INTERRES
   131   66   68 2    
   132   67  132 1    
   133   67  133 1    
   134   69   70 1    
   135   69  134 1    
   136   69  135 1    
   137   70   71 1    
   138   71  136 1    
   139   71  137 1    
@<TRIPOS>SUBSTRUCTURE
     1 UNK         1 GROUP             0       ****    0 ROOT    
