@<TRIPOS>MOLECULE
3R136
137   139    1
SMALL
USER_CHARGES


@<TRIPOS>ATOM
      1 CA         25.2883   20.2181    1.6326 C.3       0 UNK        -0.1979 
      2 C          26.1190   21.2782    0.9271 C.2       0 UNK         0.4864 
      3 O          25.6293   22.3833    0.6916 O.2       0 UNK        -0.5359 
      4 N          27.3810   20.9645    0.6026 N.am      1 UNK        -0.4318 
      5 CA         28.3216   21.8537   -0.0933 C.3       1 UNK         0.0824 
      6 C6         29.6398   21.1324   -0.4666 C.3       12 UNK        -0.0944 
      7 S7         30.5243   20.4080    0.9608 S.3       12 UNK        -0.2672 
      8 C8         32.2029   21.0798    0.7485 C.3       12 UNK         0.0333 
      9 C9         32.2840   22.5630    1.0822 C.ar      12 UNK        -0.0807 
     10 C10        32.3622   22.9787    2.4146 C.ar      12 UNK        -0.0894 
     11 C11        32.4888   24.3353    2.7281 C.ar      12 UNK        -0.0804 
     12 C12        32.5199   25.2822    1.6990 C.ar      12 UNK        -0.0824 
     13 C13        32.4444   24.8781    0.3629 C.ar      12 UNK        -0.0762 
     14 C14        32.3280   23.5177    0.0615 C.ar      12 UNK        -0.0782 
     15 C15        32.5430   25.8985   -0.7622 C.3       12 UNK         0.0230 
     16 S16        30.9541   26.1357   -1.6153 S.3       12 UNK        -0.2608 
     17 C17        30.1010   27.2904   -0.4918 C.3       12 UNK        -0.0989 
     18 CA         28.7707   27.7820   -1.1157 C.3       5 UNK         0.0716 
     19 N          27.7602   26.7199   -1.1346 N.am      5 UNK        -0.4135 
     20 C          26.6018   26.7653   -1.8070 C.2       4 UNK         0.5031 
     21 O          26.2967   27.6646   -2.5927 O.2       4 UNK        -0.5229 
     22 CA         25.6063   25.6189   -1.5542 C.3       4 UNK         0.0329 
     23 CB         25.9642   24.3867   -2.4006 C.3       4 UNK        -0.2001 
     24 N          25.5312   25.2444   -0.1396 N.am      4 UNK        -0.4303 
     25 C          24.9994   26.0105    0.8256 C.2       3 UNK         0.5044 
     26 O          24.4233   27.0778    0.6128 O.2       3 UNK        -0.5152 
     27 CA         25.1190   25.5039    2.2729 C.3       3 UNK         0.0319 
     28 CB         23.8960   24.6542    2.6560 C.3       3 UNK        -0.2001 
     29 N          26.3413   24.7234    2.4751 N.am      3 UNK        -0.4354 
     30 C          27.5280   25.2503    2.8140 C.2       2 UNK         0.4964 
     31 O          27.6961   26.4378    3.0885 O.2       2 UNK        -0.5047 
     32 CA         28.7412   24.3015    2.8614 C.3       2 UNK         0.0288 
     33 CB         28.9913   23.8201    4.2995 C.3       2 UNK        -0.2113 
     34 N          28.6184   23.1357    1.9845 N.am      2 UNK        -0.4145 
     35 C          28.5650   23.1873    0.6460 C.2       1 UNK         0.5006 
     36 O          28.6161   24.2349    0.0032 O.2       1 UNK        -0.5103 
     37 C          28.2465   29.0466   -0.4008 C.2       5 UNK         0.5055 
     38 O          27.3693   28.9589    0.4621 O.2       5 UNK        -0.5220 
     39 N          28.7987   30.2053   -0.7878 N.am      6 UNK        -0.4450 
     40 CA         28.4379   31.5287   -0.2716 C.3       6 UNK         0.0367 
     41 CB         29.1811   32.6021   -1.0848 C.3       6 UNK        -0.1929 
     42 C          28.7414   31.6954    1.2273 C.2       6 UNK         0.5070 
     43 O          29.6884   31.0962    1.7374 O.2       6 UNK        -0.5237 
     44 N          27.9623   32.5600    1.8888 N.am      7 UNK        -0.4739 
     45 CA         28.0383   32.8516    3.3263 C.3       7 UNK         0.0276 
     46 CB         26.7080   33.4873    3.7679 C.3       7 UNK        -0.1927 
     47 C          29.2342   33.7300    3.7501 C.2       7 UNK         0.5013 
     48 O          29.3362   34.0725    4.9300 O.2       7 UNK        -0.5193 
     49 N          30.1133   34.0929    2.8061 N.am      8 UNK        -0.4253 
     50 CA         31.3402   34.8636    3.0188 C.3       8 UNK         0.0242 
     51 CB         31.8329   35.3927    1.6589 C.3       8 UNK        -0.2000 
     52 C          32.4115   34.0276    3.7465 C.2       8 UNK         0.4948 
     53 O          33.3779   33.5813    3.1241 O.2       8 UNK        -0.5275 
     54 N          32.1874   33.7923    5.0463 N.am      9 UNK        -0.4246 
     55 CA         32.9757   33.0055    6.0062 C.3       9 UNK         0.0261 
     56 CB         34.4052   33.5596    6.1649 C.3       9 UNK        -0.1959 
     57 C          32.9938   31.4916    5.7282 C.2       9 UNK         0.5033 
     58 O          32.7989   30.7131    6.6638 O.2       9 UNK        -0.5390 
     59 N          33.2170   31.1010    4.4658 N.am      10 UNK        -0.4215 
     60 CA         33.3015   29.7287    3.9569 C.3       10 UNK         0.0240 
     61 CB         31.8990   29.0760    3.9389 C.3       10 UNK        -0.1982 
     62 C          34.3723   28.9176    4.7134 C.2       10 UNK         0.4970 
     63 O          35.5503   29.2724    4.6427 O.2       10 UNK        -0.4916 
     64 N          33.9476   27.8689    5.4255 N.am      11 UNK        -0.4279 
     65 CA         34.7930   27.0307    6.2878 C.3       11 UNK         0.1003 
     66 C          34.9940   27.6016    7.7232 C.2       11 UNK         0.5709 
     67 N          34.4013   28.7309    8.0947 N.am      11 UNK        -0.7358 
     68 O          35.7204   27.0113    8.5196 O.2       11 UNK        -0.4999 
     69 C69        34.2836   25.5646    6.3177 C.3       12 UNK        -0.0954 
     70 S70        34.3733   24.7791    4.6746 S.3       12 UNK        -0.2268 
     71 C71        32.6255   24.7747    4.1764 C.3       12 UNK         0.0203 
     72 H72        24.4076   19.9775    1.0379 H         1 UNK         0.0888 
     73 H73        25.8514   19.2991    1.7940 H         1 UNK         0.0888 
     74 H74        24.9545   20.5877    2.6017 H         1 UNK         0.0888 
     75 H75        27.7429   20.0497    0.8341 H         1 UNK         0.3017 
     76 H76        27.8359   22.1210   -1.0336 H         1 UNK         0.0873 
     77 H77        29.4207   20.3195   -1.1607 H         1 UNK         0.0745 
     78 H78        30.2953   21.8079   -1.0177 H         1 UNK         0.0745 
     79 H79        32.8830   20.5282    1.3993 H         1 UNK         0.0705 
     80 H80        32.5438   20.8913   -0.2709 H         1 UNK         0.0705 
     81 H81        32.3447   22.2431    3.2073 H         1 UNK         0.1334 
     82 H82        32.6307   26.3307    1.9376 H         1 UNK         0.1417 
     83 H83        32.2836   23.2058   -0.9731 H         1 UNK         0.1562 
     84 H84        33.2787   25.5521   -1.4895 H         1 UNK         0.0748 
     85 H85        32.9124   26.8570   -0.3942 H         1 UNK         0.0748 
     86 H86        30.7763   28.1259   -0.2959 H         1 UNK         0.0940 
     87 H87        29.9264   26.8025    0.4697 H         1 UNK         0.0940 
     88 H88        28.9596   28.0623   -2.1546 H         1 UNK         0.0703 
     89 H89        27.9640   25.9010   -0.5671 H         1 UNK         0.3081 
     90 H90        24.6158   25.9622   -1.8605 H         1 UNK         0.0719 
     91 H91        26.9722   24.0303   -2.1900 H         1 UNK         0.0809 
     92 H92        25.2714   23.5642   -2.2210 H         1 UNK         0.0809 
     93 H93        25.9211   24.6229   -3.4646 H         1 UNK         0.0809 
     94 H94        25.9050   24.3375    0.1176 H         1 UNK         0.2990 
     95 H95        25.1358   26.3771    2.9289 H         1 UNK         0.0690 
     96 H96        23.9554   24.3184    3.6913 H         1 UNK         0.0788 
     97 H97        23.7963   23.7727    2.0222 H         1 UNK         0.0788 
     98 H98        22.9760   25.2316    2.5550 H         1 UNK         0.0788 
     99 H99        26.2924   23.7442    2.2218 H         1 UNK         0.2993 
    100 H100       29.6113   24.8715    2.5289 H         1 UNK         0.0949 
    101 H101       29.1736   24.6642    4.9661 H         1 UNK         0.0767 
    102 H102       28.1368   23.2692    4.6947 H         1 UNK         0.0767 
    103 H103       29.8633   23.1687    4.3546 H         1 UNK         0.0767 
    104 H104       28.5701   22.2296    2.4270 H         1 UNK         0.3013 
    105 H105       29.5334   30.1829   -1.4799 H         1 UNK         0.3121 
    106 H106       27.3635   31.6564   -0.4217 H         1 UNK         0.0774 
    107 H107       28.9059   33.6057   -0.7573 H         1 UNK         0.0815 
    108 H108       30.2632   32.5110   -0.9792 H         1 UNK         0.0815 
    109 H109       28.9400   32.5356   -2.1460 H         1 UNK         0.0815 
    110 H110       27.2311   33.0362    1.3788 H         1 UNK         0.2987 
    111 H111       28.1512   31.9026    3.8557 H         1 UNK         0.0949 
    112 H112       26.6909   33.6590    4.8452 H         1 UNK         0.0806 
    113 H113       26.5402   34.4495    3.2826 H         1 UNK         0.0806 
    114 H114       25.8617   32.8404    3.5359 H         1 UNK         0.0806 
    115 H115       29.9666   33.7283    1.8768 H         1 UNK         0.3010 
    116 H116       31.1071   35.7251    3.6485 H         1 UNK         0.0829 
    117 H117       31.0920   36.0435    1.1941 H         1 UNK         0.0813 
    118 H118       32.7470   35.9764    1.7759 H         1 UNK         0.0813 
    119 H119       32.0511   34.5818    0.9625 H         1 UNK         0.0813 
    120 H120       31.2890   34.1125    5.3978 H         1 UNK         0.3038 
    121 H121       32.4715   33.1350    6.9654 H         1 UNK         0.0769 
    122 H122       34.9417   33.0263    6.9509 H         1 UNK         0.0811 
    123 H123       34.3932   34.6144    6.4392 H         1 UNK         0.0811 
    124 H124       34.9900   33.4572    5.2504 H         1 UNK         0.0811 
    125 H125       33.3915   31.8442    3.7912 H         1 UNK         0.3204 
    126 H126       33.6454   29.8016    2.9241 H         1 UNK         0.0748 
    127 H127       31.9281   28.0809    3.4952 H         1 UNK         0.0771 
    128 H128       31.4655   28.9895    4.9360 H         1 UNK         0.0771 
    129 H129       31.2076   29.6655    3.3382 H         1 UNK         0.0771 
    130 H130       32.9570   27.6865    5.4650 H         1 UNK         0.2980 
    131 H131       35.7952   27.0088    5.8554 H         1 UNK         0.0545 
    132 H132       33.8152   29.2632    7.4582 H         1 UNK         0.3459 
    133 H133       34.5552   29.0752    9.0286 H         1 UNK         0.3459 
    134 H134       34.8932   24.9585    6.9903 H         1 UNK         0.0616 
    135 H135       33.2640   25.5139    6.7037 H         1 UNK         0.0616 
    136 H136       32.0676   24.1056    4.8326 H         1 UNK         0.0634 
    137 H137       32.1978   25.7687    4.3086 H         1 UNK         0.0634 
@<TRIPOS>BOND
     1    1    2 1    
     2    1   72 1    
     3    1   73 1    
     4    1   74 1    
     5    2    3 2    
     6    2    4 am   BACKBONE|DICT|INTERRES
     7    4    5 1    
     8    4   75 1    
     9    5    6 1    
    10    5   35 1    
    11    5   76 1    
    12    6    7 1    
    13    6   77 1    
    14    6   78 1    
    15    7    8 1    
    16    8    9 1    
    17    8   79 1    
    18    8   80 1    
    19    9   10 ar   
    20    9   14 ar   
    21   10   11 ar   
    22   10   81 1    
    23   11   12 ar   
    24   11   71 1    
    25   12   13 ar   
    26   12   82 1    
    27   13   14 ar   
    28   13   15 1    
    29   14   83 1    
    30   15   16 1    
    31   15   84 1    
    32   15   85 1    
    33   16   17 1    
    34   17   18 1    
    35   17   86 1    
    36   17   87 1    
    37   18   19 1    
    38   18   37 1    
    39   18   88 1    
    40   19   20 am   BACKBONE|DICT|INTERRES
    41   19   89 1    
    42   20   21 2    
    43   20   22 1    
    44   22   23 1    
    45   22   24 1    
    46   22   90 1    
    47   23   91 1    
    48   23   92 1    
    49   23   93 1    
    50   24   25 am   BACKBONE|DICT|INTERRES
    51   24   94 1    
    52   25   26 2    
    53   25   27 1    
    54   27   28 1    
    55   27   29 1    
    56   27   95 1    
    57   28   96 1    
    58   28   97 1    
    59   28   98 1    
    60   29   30 am   BACKBONE|DICT|INTERRES
    61   29   99 1    
    62   30   31 2    
    63   30   32 1    
    64   32   33 1    
    65   32   34 1    
    66   32  100 1    
    67   33  101 1    
    68   33  102 1    
    69   33  103 1    
    70   34   35 am   BACKBONE|DICT|INTERRES
    71   34  104 1    
    72   35   36 2    
    73   37   38 2    
    74   37   39 am   BACKBONE|DICT|INTERRES
    75   39   40 1    
    76   39  105 1    
    77   40   41 1    
    78   40   42 1    
    79   40  106 1    
    80   41  107 1    
    81   41  108 1    
    82   41  109 1    
    83   42   43 2    
    84   42   44 am   BACKBONE|DICT|INTERRES
    85   44   45 1    
    86   44  110 1    
    87   45   46 1    
    88   45   47 1    
    89   45  111 1    
    90   46  112 1    
    91   46  113 1    
    92   46  114 1    
    93   47   48 2    
    94   47   49 am   BACKBONE|DICT|INTERRES
    95   49   50 1    
    96   49  115 1    
    97   50   51 1    
    98   50   52 1    
    99   50  116 1    
   100   51  117 1    
   101   51  118 1    
   102   51  119 1    
   103   52   53 2    
   104   52   54 am   BACKBONE|DICT|INTERRES
   105   54   55 1    
   106   54  120 1    
   107   55   56 1    
   108   55   57 1    
   109   55  121 1    
   110   56  122 1    
   111   56  123 1    
   112   56  124 1    
   113   57   58 2    
   114   57   59 am   BACKBONE|DICT|INTERRES
   115   59   60 1    
   116   59  125 1    
   117   60   61 1    
   118   60   62 1    
   119   60  126 1    
   120   61  127 1    
   121   61  128 1    
   122   61  129 1    
   123   62   63 2    
   124   62   64 am   BACKBONE|DICT|INTERRES
   125   64   65 1    
   126   64  130 1    
   127   65   66 1    
   128   65   69 1    
   129   65  131 1    
   130   66   67 am   BACKBONE|DICT|INTERRES
   131   66   68 2    
   132   67  132 1    
   133   67  133 1    
   134   69   70 1    
   135   69  134 1    
   136   69  135 1    
   137   70   71 1    
   138   71  136 1    
   139   71  137 1    
@<TRIPOS>SUBSTRUCTURE
     1 UNK         1 GROUP             0       ****    0 ROOT    
