@<TRIPOS>MOLECULE
3R136
137   139    1
SMALL
USER_CHARGES


@<TRIPOS>ATOM
      1 CA         26.4733   22.3721    0.0484 C.3       0 UNK        -0.1979 
      2 C          27.9193   22.8134   -0.1146 C.2       0 UNK         0.4864 
      3 O          28.3187   23.8415    0.4364 O.2       0 UNK        -0.5359 
      4 N          28.6955   22.0425   -0.8883 N.am      1 UNK        -0.4318 
      5 CA         30.1237   22.2500   -1.1727 C.3       1 UNK         0.0824 
      6 C6         31.0155   22.1429    0.1008 C.3       12 UNK        -0.0944 
      7 S7         30.7598   20.5589    0.9724 S.3       12 UNK        -0.2672 
      8 C8         31.4400   20.9160    2.6246 C.3       12 UNK         0.0333 
      9 C9         30.6237   21.9256    3.4273 C.ar      12 UNK        -0.0807 
     10 C10        31.2633   23.0264    4.0070 C.ar      12 UNK        -0.0894 
     11 C11        30.5468   23.9254    4.8011 C.ar      12 UNK        -0.0804 
     12 C12        29.1840   23.7189    5.0205 C.ar      12 UNK        -0.0824 
     13 C13        28.5224   22.6473    4.4191 C.ar      12 UNK        -0.0762 
     14 C14        29.2491   21.7458    3.6318 C.ar      12 UNK        -0.0782 
     15 C15        27.0260   22.4676    4.6301 C.3       12 UNK         0.0230 
     16 S16        26.0497   23.3927    3.4001 S.3       12 UNK        -0.2608 
     17 C17        26.1005   25.1143    4.0182 C.3       12 UNK        -0.0989 
     18 CA         27.1326   26.0262    3.2913 C.3       5 UNK         0.0716 
     19 N          27.0286   25.9750    1.8304 N.am      5 UNK        -0.4135 
     20 C          26.0589   26.4535    1.0386 C.2       4 UNK         0.5031 
     21 O          25.0210   26.9742    1.4507 O.2       4 UNK        -0.5229 
     22 CA         26.3513   26.3806   -0.4789 C.3       4 UNK         0.0329 
     23 CB         25.4648   27.3306   -1.3123 C.3       4 UNK        -0.2001 
     24 N          27.7812   26.5872   -0.7739 N.am      4 UNK        -0.4303 
     25 C          28.4990   27.6752   -0.4410 C.2       3 UNK         0.5044 
     26 O          27.9998   28.6996    0.0204 O.2       3 UNK        -0.5152 
     27 CA         30.0279   27.6071   -0.5415 C.3       3 UNK         0.0319 
     28 CB         30.6188   27.3846    0.8658 C.3       3 UNK        -0.2001 
     29 N          30.5038   26.5696   -1.4529 N.am      3 UNK        -0.4354 
     30 C          31.7380   26.4783   -1.9578 C.2       2 UNK         0.4964 
     31 O          32.6134   27.3248   -1.7704 O.2       2 UNK        -0.5047 
     32 CA         32.0456   25.2111   -2.7878 C.3       2 UNK         0.0288 
     33 CB         33.5368   25.0944   -3.1578 C.3       2 UNK        -0.2113 
     34 N          31.6292   23.9766   -2.1061 N.am      2 UNK        -0.4145 
     35 C          30.3648   23.5465   -1.9851 C.2       1 UNK         0.5006 
     36 O          29.4127   24.1526   -2.4899 O.2       1 UNK        -0.5103 
     37 C          27.1564   27.4616    3.8834 C.2       5 UNK         0.5055 
     38 O          26.9607   27.6048    5.0924 O.2       5 UNK        -0.5220 
     39 N          27.3754   28.5034    3.0636 N.am      6 UNK        -0.4450 
     40 CA         27.3141   29.9017    3.4913 C.3       6 UNK         0.0367 
     41 CB         26.9762   30.7972    2.2878 C.3       6 UNK        -0.1929 
     42 C          28.6305   30.3575    4.1335 C.2       6 UNK         0.5070 
     43 O          29.6870   30.2549    3.5070 O.2       6 UNK        -0.5237 
     44 N          28.5317   30.9431    5.3348 N.am      7 UNK        -0.4739 
     45 CA         29.6433   31.5609    6.0728 C.3       7 UNK         0.0276 
     46 CB         29.1821   31.8754    7.5048 C.3       7 UNK        -0.1927 
     47 C          30.2195   32.8219    5.3996 C.2       7 UNK         0.5013 
     48 O          31.3348   33.2254    5.7270 O.2       7 UNK        -0.5193 
     49 N          29.4591   33.4135    4.4683 N.am      8 UNK        -0.4253 
     50 CA         29.8983   34.5004    3.5920 C.3       8 UNK         0.0242 
     51 CB         28.6580   35.2041    3.0155 C.3       8 UNK        -0.2000 
     52 C          30.8247   34.0258    2.4539 C.2       8 UNK         0.4948 
     53 O          31.4789   34.8676    1.8361 O.2       8 UNK        -0.5275 
     54 N          30.8524   32.7132    2.1815 N.am      9 UNK        -0.4246 
     55 CA         31.6956   32.0733    1.1745 C.3       9 UNK         0.0261 
     56 CB         30.8102   31.1695    0.2953 C.3       9 UNK        -0.1959 
     57 C          32.8533   31.3303    1.8683 C.2       9 UNK         0.5033 
     58 O          33.3374   31.7904    2.9057 O.2       9 UNK        -0.5390 
     59 N          33.3010   30.2058    1.2888 N.am      10 UNK        -0.4215 
     60 CA         34.4735   29.4346    1.7255 C.3       10 UNK         0.0240 
     61 CB         34.7632   28.3166    0.7100 C.3       10 UNK        -0.1982 
     62 C          34.4009   28.8625    3.1551 C.2       10 UNK         0.4970 
     63 O          35.4505   28.5360    3.7116 O.2       10 UNK        -0.4916 
     64 N          33.1959   28.7649    3.7325 N.am      11 UNK        -0.4279 
     65 CA         32.9891   28.4131    5.1461 C.3       11 UNK         0.1003 
     66 C          33.3850   29.5421    6.1437 C.2       11 UNK         0.5709 
     67 N          33.6080   30.7769    5.7075 N.am      11 UNK        -0.7358 
     68 O          33.4949   29.2881    7.3407 O.2       11 UNK        -0.4999 
     69 C69        31.5449   27.9268    5.4278 C.3       12 UNK        -0.0954 
     70 S70        31.0011   26.5801    4.3320 S.3       12 UNK        -0.2268 
     71 C71        31.2284   25.1370    5.4087 C.3       12 UNK         0.0203 
     72 H72        26.0930   21.9114   -0.8630 H         1 UNK         0.0888 
     73 H73        26.3949   21.6494    0.8600 H         1 UNK         0.0888 
     74 H74        25.8346   23.2206    0.2894 H         1 UNK         0.0888 
     75 H75        28.2880   21.2317   -1.3315 H         1 UNK         0.3017 
     76 H76        30.4101   21.4379   -1.8426 H         1 UNK         0.0873 
     77 H77        32.0755   22.2029   -0.1489 H         1 UNK         0.0745 
     78 H78        30.8116   22.9688    0.7850 H         1 UNK         0.0745 
     79 H79        32.4720   21.2515    2.5094 H         1 UNK         0.0705 
     80 H80        31.4840   19.9837    3.1889 H         1 UNK         0.0705 
     81 H81        32.3212   23.1836    3.8466 H         1 UNK         0.1334 
     82 H82        28.6308   24.4165    5.6345 H         1 UNK         0.1417 
     83 H83        28.7462   20.9038    3.1761 H         1 UNK         0.1562 
     84 H84        26.7404   22.7712    5.6384 H         1 UNK         0.0748 
     85 H85        26.7693   21.4102    4.5512 H         1 UNK         0.0748 
     86 H86        26.2925   25.0923    5.0921 H         1 UNK         0.0940 
     87 H87        25.0982   25.5319    3.9073 H         1 UNK         0.0940 
     88 H88        28.1254   25.6306    3.4967 H         1 UNK         0.0703 
     89 H89        27.7668   25.4462    1.3717 H         1 UNK         0.3081 
     90 H90        26.1186   25.3620   -0.7892 H         1 UNK         0.0719 
     91 H91        25.6990   27.2617   -2.3744 H         1 UNK         0.0809 
     92 H92        25.5841   28.3710   -1.0085 H         1 UNK         0.0809 
     93 H93        24.4098   27.0797   -1.1961 H         1 UNK         0.0809 
     94 H94        28.2648   25.7532   -1.0787 H         1 UNK         0.2990 
     95 H95        30.3607   28.5726   -0.9245 H         1 UNK         0.0690 
     96 H96        31.7001   27.5017    0.8722 H         1 UNK         0.0788 
     97 H97        30.3915   26.3850    1.2390 H         1 UNK         0.0788 
     98 H98        30.2176   28.0963    1.5891 H         1 UNK         0.0788 
     99 H99        29.8547   25.8352   -1.7156 H         1 UNK         0.2993 
    100 H100       31.4806   25.3007   -3.7184 H         1 UNK         0.0949 
    101 H101       34.1676   25.0198   -2.2710 H         1 UNK         0.0767 
    102 H102       33.7248   24.2189   -3.7798 H         1 UNK         0.0767 
    103 H103       33.8697   25.9663   -3.7228 H         1 UNK         0.0767 
    104 H104       32.3642   23.4495   -1.6577 H         1 UNK         0.3013 
    105 H105       27.5642   28.3439    2.0805 H         1 UNK         0.3121 
    106 H106       26.5034   30.0067    4.2160 H         1 UNK         0.0774 
    107 H107       26.8032   31.8267    2.6028 H         1 UNK         0.0815 
    108 H108       27.7846   30.8157    1.5558 H         1 UNK         0.0815 
    109 H109       26.0739   30.4569    1.7791 H         1 UNK         0.0815 
    110 H110       27.6242   30.9850    5.7776 H         1 UNK         0.2987 
    111 H111       30.4583   30.8382    6.1302 H         1 UNK         0.0949 
    112 H112       28.8558   30.9739    8.0240 H         1 UNK         0.0806 
    113 H113       29.9953   32.3065    8.0908 H         1 UNK         0.0806 
    114 H114       28.3579   32.5896    7.5169 H         1 UNK         0.0806 
    115 H115       28.5442   33.0263    4.2920 H         1 UNK         0.3010 
    116 H116       30.4580   35.2238    4.1891 H         1 UNK         0.0829 
    117 H117       28.0209   35.5990    3.8071 H         1 UNK         0.0813 
    118 H118       28.9454   36.0460    2.3841 H         1 UNK         0.0813 
    119 H119       28.0576   34.5292    2.4039 H         1 UNK         0.0813 
    120 H120       30.3434   32.0741    2.7828 H         1 UNK         0.3038 
    121 H121       32.1506   32.8259    0.5278 H         1 UNK         0.0769 
    122 H122       29.9813   31.7332   -0.1334 H         1 UNK         0.0811 
    123 H123       30.3796   30.3481    0.8674 H         1 UNK         0.0811 
    124 H124       31.3676   30.7497   -0.5424 H         1 UNK         0.0811 
    125 H125       32.8475   29.8885    0.4442 H         1 UNK         0.3204 
    126 H126       35.3215   30.1225    1.7116 H         1 UNK         0.0748 
    127 H127       35.6944   27.8029    0.9527 H         1 UNK         0.0771 
    128 H128       33.9765   27.5632    0.6967 H         1 UNK         0.0771 
    129 H129       34.8682   28.7097   -0.3015 H         1 UNK         0.0771 
    130 H130       32.3759   29.0594    3.2233 H         1 UNK         0.2980 
    131 H131       33.6523   27.5751    5.3689 H         1 UNK         0.0545 
    132 H132       33.8491   31.4959    6.3699 H         1 UNK         0.3459 
    133 H133       33.5054   31.0176    4.7264 H         1 UNK         0.3459 
    134 H134       31.4425   27.6072    6.4662 H         1 UNK         0.0616 
    135 H135       30.8399   28.7452    5.3007 H         1 UNK         0.0616 
    136 H136       30.8074   25.3382    6.3950 H         1 UNK         0.0634 
    137 H137       32.2944   24.9535    5.5520 H         1 UNK         0.0634 
@<TRIPOS>BOND
     1    1    2 1    
     2    1   72 1    
     3    1   73 1    
     4    1   74 1    
     5    2    3 2    
     6    2    4 am   BACKBONE|DICT|INTERRES
     7    4    5 1    
     8    4   75 1    
     9    5    6 1    
    10    5   35 1    
    11    5   76 1    
    12    6    7 1    
    13    6   77 1    
    14    6   78 1    
    15    7    8 1    
    16    8    9 1    
    17    8   79 1    
    18    8   80 1    
    19    9   10 ar   
    20    9   14 ar   
    21   10   11 ar   
    22   10   81 1    
    23   11   12 ar   
    24   11   71 1    
    25   12   13 ar   
    26   12   82 1    
    27   13   14 ar   
    28   13   15 1    
    29   14   83 1    
    30   15   16 1    
    31   15   84 1    
    32   15   85 1    
    33   16   17 1    
    34   17   18 1    
    35   17   86 1    
    36   17   87 1    
    37   18   19 1    
    38   18   37 1    
    39   18   88 1    
    40   19   20 am   BACKBONE|DICT|INTERRES
    41   19   89 1    
    42   20   21 2    
    43   20   22 1    
    44   22   23 1    
    45   22   24 1    
    46   22   90 1    
    47   23   91 1    
    48   23   92 1    
    49   23   93 1    
    50   24   25 am   BACKBONE|DICT|INTERRES
    51   24   94 1    
    52   25   26 2    
    53   25   27 1    
    54   27   28 1    
    55   27   29 1    
    56   27   95 1    
    57   28   96 1    
    58   28   97 1    
    59   28   98 1    
    60   29   30 am   BACKBONE|DICT|INTERRES
    61   29   99 1    
    62   30   31 2    
    63   30   32 1    
    64   32   33 1    
    65   32   34 1    
    66   32  100 1    
    67   33  101 1    
    68   33  102 1    
    69   33  103 1    
    70   34   35 am   BACKBONE|DICT|INTERRES
    71   34  104 1    
    72   35   36 2    
    73   37   38 2    
    74   37   39 am   BACKBONE|DICT|INTERRES
    75   39   40 1    
    76   39  105 1    
    77   40   41 1    
    78   40   42 1    
    79   40  106 1    
    80   41  107 1    
    81   41  108 1    
    82   41  109 1    
    83   42   43 2    
    84   42   44 am   BACKBONE|DICT|INTERRES
    85   44   45 1    
    86   44  110 1    
    87   45   46 1    
    88   45   47 1    
    89   45  111 1    
    90   46  112 1    
    91   46  113 1    
    92   46  114 1    
    93   47   48 2    
    94   47   49 am   BACKBONE|DICT|INTERRES
    95   49   50 1    
    96   49  115 1    
    97   50   51 1    
    98   50   52 1    
    99   50  116 1    
   100   51  117 1    
   101   51  118 1    
   102   51  119 1    
   103   52   53 2    
   104   52   54 am   BACKBONE|DICT|INTERRES
   105   54   55 1    
   106   54  120 1    
   107   55   56 1    
   108   55   57 1    
   109   55  121 1    
   110   56  122 1    
   111   56  123 1    
   112   56  124 1    
   113   57   58 2    
   114   57   59 am   BACKBONE|DICT|INTERRES
   115   59   60 1    
   116   59  125 1    
   117   60   61 1    
   118   60   62 1    
   119   60  126 1    
   120   61  127 1    
   121   61  128 1    
   122   61  129 1    
   123   62   63 2    
   124   62   64 am   BACKBONE|DICT|INTERRES
   125   64   65 1    
   126   64  130 1    
   127   65   66 1    
   128   65   69 1    
   129   65  131 1    
   130   66   67 am   BACKBONE|DICT|INTERRES
   131   66   68 2    
   132   67  132 1    
   133   67  133 1    
   134   69   70 1    
   135   69  134 1    
   136   69  135 1    
   137   70   71 1    
   138   71  136 1    
   139   71  137 1    
@<TRIPOS>SUBSTRUCTURE
     1 UNK         1 GROUP             0       ****    0 ROOT    
