@<TRIPOS>MOLECULE
3R136
137   139    1
SMALL
USER_CHARGES


@<TRIPOS>ATOM
      1 CA         32.1250   27.1147   -0.2709 C.3       0 UNK        -0.1979 
      2 C          30.9546   26.1878    0.0242 C.2       0 UNK         0.4864 
      3 O          29.8681   26.6623    0.3616 O.2       0 UNK        -0.5359 
      4 N          31.1770   24.8730   -0.0942 N.am      1 UNK        -0.4318 
      5 CA         30.1527   23.8404    0.0679 C.3       1 UNK         0.0824 
      6 C6         30.7678   22.5044    0.5655 C.3       12 UNK        -0.0944 
      7 S7         29.6431   21.6218    1.6978 S.3       12 UNK        -0.2672 
      8 C8         30.4259   21.9362    3.3135 C.3       12 UNK         0.0333 
      9 C9         30.3214   23.3990    3.7232 C.ar      12 UNK        -0.0807 
     10 C10        31.3756   24.2820    3.4745 C.ar      12 UNK        -0.0894 
     11 C11        31.2897   25.6302    3.8358 C.ar      12 UNK        -0.0804 
     12 C12        30.1268   26.0864    4.4730 C.ar      12 UNK        -0.0824 
     13 C13        29.0753   25.2069    4.7524 C.ar      12 UNK        -0.0762 
     14 C14        29.1752   23.8671    4.3683 C.ar      12 UNK        -0.0782 
     15 C15        27.8432   25.6857    5.5053 C.3       12 UNK         0.0230 
     16 S16        26.3895   25.8276    4.4218 S.3       12 UNK        -0.2608 
     17 C17        26.7309   27.3846    3.5339 C.3       12 UNK        -0.0989 
     18 CA         26.5909   27.2438    1.9974 C.3       5 UNK         0.0716 
     19 N          25.2696   26.7343    1.6186 N.am      5 UNK        -0.4135 
     20 C          24.9361   26.3237    0.3919 C.2       4 UNK         0.5031 
     21 O          25.7103   26.3228   -0.5690 O.2       4 UNK        -0.5229 
     22 CA         23.4990   25.8239    0.1991 C.3       4 UNK         0.0329 
     23 CB         22.5547   26.9754   -0.1841 C.3       4 UNK        -0.2001 
     24 N          23.5371   24.8411   -0.8750 N.am      4 UNK        -0.4303 
     25 C          22.9052   23.6634   -0.8981 C.2       3 UNK         0.5044 
     26 O          22.0294   23.3353   -0.0966 O.2       3 UNK        -0.5152 
     27 CA         23.3515   22.6652   -1.9872 C.3       3 UNK         0.0319 
     28 CB         22.4020   22.7256   -3.1946 C.3       3 UNK        -0.2001 
     29 N          24.7328   22.8743   -2.4460 N.am      3 UNK        -0.4354 
     30 C          25.8242   22.7498   -1.6755 C.2       2 UNK         0.4964 
     31 O          25.7883   22.3573   -0.5058 O.2       2 UNK        -0.5047 
     32 CA         27.1725   23.1594   -2.2918 C.3       2 UNK         0.0288 
     33 CB         27.0562   24.3623   -3.2594 C.3       2 UNK        -0.2113 
     34 N          28.0857   23.4497   -1.1870 N.am      2 UNK        -0.4145 
     35 C          29.4047   23.6453   -1.2649 C.2       1 UNK         0.5006 
     36 O          30.0425   23.6349   -2.3220 O.2       1 UNK        -0.5103 
     37 C          26.8542   28.6067    1.3286 C.2       5 UNK         0.5055 
     38 O          25.9772   29.4741    1.3698 O.2       5 UNK        -0.5220 
     39 N          28.0605   28.7965    0.7769 N.am      6 UNK        -0.4450 
     40 CA         28.5114   30.0845    0.2362 C.3       6 UNK         0.0367 
     41 CB         29.7661   29.8742   -0.6245 C.3       6 UNK        -0.1929 
     42 C          28.7934   31.1288    1.3322 C.2       6 UNK         0.5070 
     43 O          28.7051   32.3248    1.0543 O.2       6 UNK        -0.5237 
     44 N          29.1304   30.6549    2.5438 N.am      7 UNK        -0.4739 
     45 CA         29.4509   31.4329    3.7493 C.3       7 UNK         0.0276 
     46 CB         28.2018   32.1758    4.2690 C.3       7 UNK        -0.1927 
     47 C          30.6720   32.3564    3.5630 C.2       7 UNK         0.5013 
     48 O          30.6801   33.4884    4.0521 O.2       7 UNK        -0.5193 
     49 N          31.6825   31.8448    2.8492 N.am      8 UNK        -0.4253 
     50 CA         32.9811   32.4844    2.6443 C.3       8 UNK         0.0242 
     51 CB         33.6879   31.7742    1.4761 C.3       8 UNK        -0.2000 
     52 C          33.8431   32.4116    3.9152 C.2       8 UNK         0.4948 
     53 O          33.5645   31.6026    4.8023 O.2       8 UNK        -0.5275 
     54 N          34.9262   33.2015    3.9544 N.am      9 UNK        -0.4246 
     55 CA         35.9188   33.2030    5.0407 C.3       9 UNK         0.0261 
     56 CB         36.9846   34.2747    4.7613 C.3       9 UNK        -0.1959 
     57 C          36.5812   31.8315    5.2813 C.2       9 UNK         0.5033 
     58 O          36.9175   31.5097    6.4218 O.2       9 UNK        -0.5390 
     59 N          36.6976   31.0282    4.2138 N.am      10 UNK        -0.4215 
     60 CA         37.1402   29.6325    4.2389 C.3       10 UNK         0.0240 
     61 CB         37.2880   29.1304    2.7929 C.3       10 UNK        -0.1982 
     62 C          36.2164   28.6909    5.0372 C.2       10 UNK         0.4970 
     63 O          36.6876   27.6435    5.4820 O.2       10 UNK        -0.4916 
     64 N          34.9401   29.0636    5.2115 N.am      11 UNK        -0.4279 
     65 CA         33.9653   28.3278    6.0298 C.3       11 UNK         0.1003 
     66 C          34.0915   28.6087    7.5565 C.2       11 UNK         0.5709 
     67 N          34.9367   29.5314    8.0054 N.am      11 UNK        -0.7358 
     68 O          33.4168   27.9633    8.3552 O.2       11 UNK        -0.4999 
     69 C69        32.5015   28.5258    5.5400 C.3       12 UNK        -0.0954 
     70 S70        32.2578   28.3238    3.7386 S.3       12 UNK        -0.2268 
     71 C71        32.4910   26.5253    3.5206 C.3       12 UNK         0.0203 
     72 H72        31.9386   27.6722   -1.1881 H         1 UNK         0.0888 
     73 H73        32.2569   27.8272    0.5426 H         1 UNK         0.0888 
     74 H74        33.0588   26.5657   -0.3908 H         1 UNK         0.0888 
     75 H75        32.0725   24.5484   -0.4293 H         1 UNK         0.3017 
     76 H76        29.4418   24.2006    0.8163 H         1 UNK         0.0873 
     77 H77        31.0297   21.8390   -0.2602 H         1 UNK         0.0745 
     78 H78        31.7093   22.6809    1.0857 H         1 UNK         0.0745 
     79 H79        29.9415   21.3105    4.0647 H         1 UNK         0.0705 
     80 H80        31.4692   21.6176    3.2842 H         1 UNK         0.0705 
     81 H81        32.2715   23.9195    2.9897 H         1 UNK         0.1334 
     82 H82        30.0337   27.1199    4.7707 H         1 UNK         0.1417 
     83 H83        28.3594   23.1876    4.5758 H         1 UNK         0.1562 
     84 H84        28.0289   26.6406    5.9997 H         1 UNK         0.0748 
     85 H85        27.6153   24.9752    6.3014 H         1 UNK         0.0748 
     86 H86        27.7335   27.7331    3.7870 H         1 UNK         0.0940 
     87 H87        26.0450   28.1431    3.9177 H         1 UNK         0.0940 
     88 H88        27.3390   26.5290    1.6457 H         1 UNK         0.0703 
     89 H89        24.5763   26.7191    2.3517 H         1 UNK         0.3081 
     90 H90        23.1589   25.3568    1.1262 H         1 UNK         0.0719 
     91 H91        22.8794   27.4755   -1.0975 H         1 UNK         0.0809 
     92 H92        21.5378   26.6159   -0.3426 H         1 UNK         0.0809 
     93 H93        22.5148   27.7279    0.6045 H         1 UNK         0.0809 
     94 H94        24.2836   25.0006   -1.5397 H         1 UNK         0.2990 
     95 H95        23.2928   21.6642   -1.5545 H         1 UNK         0.0690 
     96 H96        22.6538   21.9680   -3.9370 H         1 UNK         0.0788 
     97 H97        22.4311   23.7003   -3.6835 H         1 UNK         0.0788 
     98 H98        21.3704   22.5458   -2.8884 H         1 UNK         0.0788 
     99 H99        24.8490   23.1962   -3.3964 H         1 UNK         0.2993 
    100 H100       27.5582   22.2956   -2.8368 H         1 UNK         0.0949 
    101 H101       26.6300   25.2365   -2.7679 H         1 UNK         0.0767 
    102 H102       28.0263   24.6550   -3.6597 H         1 UNK         0.0767 
    103 H103       26.4309   24.1274   -4.1210 H         1 UNK         0.0767 
    104 H104       27.6409   23.3965   -0.2778 H         1 UNK         0.3013 
    105 H105       28.7165   28.0153    0.7189 H         1 UNK         0.3121 
    106 H106       27.7209   30.4800   -0.4055 H         1 UNK         0.0774 
    107 H107       30.6131   29.5496   -0.0209 H         1 UNK         0.0815 
    108 H108       30.0579   30.8015   -1.1193 H         1 UNK         0.0815 
    109 H109       29.5974   29.1291   -1.4022 H         1 UNK         0.0815 
    110 H110       29.1949   29.6516    2.6400 H         1 UNK         0.2987 
    111 H111       29.7423   30.7095    4.5129 H         1 UNK         0.0949 
    112 H112       27.3641   31.4927    4.4098 H         1 UNK         0.0806 
    113 H113       28.3999   32.6475    5.2322 H         1 UNK         0.0806 
    114 H114       27.8827   32.9608    3.5827 H         1 UNK         0.0806 
    115 H115       31.5969   30.8905    2.5327 H         1 UNK         0.3010 
    116 H116       32.8207   33.5337    2.3872 H         1 UNK         0.0829 
    117 H117       34.6412   32.2486    1.2402 H         1 UNK         0.0813 
    118 H118       33.8909   30.7264    1.7037 H         1 UNK         0.0813 
    119 H119       33.0829   31.8069    0.5695 H         1 UNK         0.0813 
    120 H120       35.0929   33.8386    3.1880 H         1 UNK         0.3038 
    121 H121       35.3946   33.4728    5.9600 H         1 UNK         0.0769 
    122 H122       37.5242   34.0778    3.8341 H         1 UNK         0.0811 
    123 H123       37.7214   34.3103    5.5654 H         1 UNK         0.0811 
    124 H124       36.5408   35.2677    4.6888 H         1 UNK         0.0811 
    125 H125       36.3975   31.3897    3.3208 H         1 UNK         0.3204 
    126 H126       38.1220   29.6056    4.7162 H         1 UNK         0.0748 
    127 H127       37.6501   28.1014    2.7718 H         1 UNK         0.0771 
    128 H128       36.3368   29.1514    2.2590 H         1 UNK         0.0771 
    129 H129       38.0030   29.7336    2.2329 H         1 UNK         0.0771 
    130 H130       34.6141   29.9593    4.8624 H         1 UNK         0.2980 
    131 H131       34.1892   27.2656    5.9272 H         1 UNK         0.0545 
    132 H132       35.5055   30.0722    7.3673 H         1 UNK         0.3459 
    133 H133       35.0059   29.6919    8.9976 H         1 UNK         0.3459 
    134 H134       32.1529   29.5268    5.7993 H         1 UNK         0.0616 
    135 H135       31.8381   27.8347    6.0613 H         1 UNK         0.0616 
    136 H136       32.7756   26.3621    2.4816 H         1 UNK         0.0634 
    137 H137       33.3437   26.1943    4.1124 H         1 UNK         0.0634 
@<TRIPOS>BOND
     1    1    2 1    
     2    1   72 1    
     3    1   73 1    
     4    1   74 1    
     5    2    3 2    
     6    2    4 am   BACKBONE|DICT|INTERRES
     7    4    5 1    
     8    4   75 1    
     9    5    6 1    
    10    5   35 1    
    11    5   76 1    
    12    6    7 1    
    13    6   77 1    
    14    6   78 1    
    15    7    8 1    
    16    8    9 1    
    17    8   79 1    
    18    8   80 1    
    19    9   10 ar   
    20    9   14 ar   
    21   10   11 ar   
    22   10   81 1    
    23   11   12 ar   
    24   11   71 1    
    25   12   13 ar   
    26   12   82 1    
    27   13   14 ar   
    28   13   15 1    
    29   14   83 1    
    30   15   16 1    
    31   15   84 1    
    32   15   85 1    
    33   16   17 1    
    34   17   18 1    
    35   17   86 1    
    36   17   87 1    
    37   18   19 1    
    38   18   37 1    
    39   18   88 1    
    40   19   20 am   BACKBONE|DICT|INTERRES
    41   19   89 1    
    42   20   21 2    
    43   20   22 1    
    44   22   23 1    
    45   22   24 1    
    46   22   90 1    
    47   23   91 1    
    48   23   92 1    
    49   23   93 1    
    50   24   25 am   BACKBONE|DICT|INTERRES
    51   24   94 1    
    52   25   26 2    
    53   25   27 1    
    54   27   28 1    
    55   27   29 1    
    56   27   95 1    
    57   28   96 1    
    58   28   97 1    
    59   28   98 1    
    60   29   30 am   BACKBONE|DICT|INTERRES
    61   29   99 1    
    62   30   31 2    
    63   30   32 1    
    64   32   33 1    
    65   32   34 1    
    66   32  100 1    
    67   33  101 1    
    68   33  102 1    
    69   33  103 1    
    70   34   35 am   BACKBONE|DICT|INTERRES
    71   34  104 1    
    72   35   36 2    
    73   37   38 2    
    74   37   39 am   BACKBONE|DICT|INTERRES
    75   39   40 1    
    76   39  105 1    
    77   40   41 1    
    78   40   42 1    
    79   40  106 1    
    80   41  107 1    
    81   41  108 1    
    82   41  109 1    
    83   42   43 2    
    84   42   44 am   BACKBONE|DICT|INTERRES
    85   44   45 1    
    86   44  110 1    
    87   45   46 1    
    88   45   47 1    
    89   45  111 1    
    90   46  112 1    
    91   46  113 1    
    92   46  114 1    
    93   47   48 2    
    94   47   49 am   BACKBONE|DICT|INTERRES
    95   49   50 1    
    96   49  115 1    
    97   50   51 1    
    98   50   52 1    
    99   50  116 1    
   100   51  117 1    
   101   51  118 1    
   102   51  119 1    
   103   52   53 2    
   104   52   54 am   BACKBONE|DICT|INTERRES
   105   54   55 1    
   106   54  120 1    
   107   55   56 1    
   108   55   57 1    
   109   55  121 1    
   110   56  122 1    
   111   56  123 1    
   112   56  124 1    
   113   57   58 2    
   114   57   59 am   BACKBONE|DICT|INTERRES
   115   59   60 1    
   116   59  125 1    
   117   60   61 1    
   118   60   62 1    
   119   60  126 1    
   120   61  127 1    
   121   61  128 1    
   122   61  129 1    
   123   62   63 2    
   124   62   64 am   BACKBONE|DICT|INTERRES
   125   64   65 1    
   126   64  130 1    
   127   65   66 1    
   128   65   69 1    
   129   65  131 1    
   130   66   67 am   BACKBONE|DICT|INTERRES
   131   66   68 2    
   132   67  132 1    
   133   67  133 1    
   134   69   70 1    
   135   69  134 1    
   136   69  135 1    
   137   70   71 1    
   138   71  136 1    
   139   71  137 1    
@<TRIPOS>SUBSTRUCTURE
     1 UNK         1 GROUP             0       ****    0 ROOT    
