@<TRIPOS>MOLECULE
3R136
137   139    1
SMALL
USER_CHARGES


@<TRIPOS>ATOM
      1 CA         27.2629   22.6646   -2.3674 C.3       0 UNK        -0.1979 
      2 C          27.8357   23.3465   -1.1347 C.2       0 UNK         0.4864 
      3 O          27.3533   24.4120   -0.7468 O.2       0 UNK        -0.5359 
      4 N          28.8582   22.7431   -0.5199 N.am      1 UNK        -0.4318 
      5 CA         29.5428   23.2281    0.6826 C.3       1 UNK         0.0824 
      6 C6         30.7727   22.3503    1.0205 C.3       12 UNK        -0.0944 
      7 S7         31.9778   22.3179   -0.3496 S.3       12 UNK        -0.2672 
      8 C8         33.3780   23.2392    0.3562 C.3       12 UNK         0.0333 
      9 C9         33.0120   24.6693    0.7308 C.ar      12 UNK        -0.0807 
     10 C10        33.0065   25.0618    2.0717 C.ar      12 UNK        -0.0894 
     11 C11        32.7421   26.3874    2.4272 C.ar      12 UNK        -0.0804 
     12 C12        32.4761   27.3245    1.4215 C.ar      12 UNK        -0.0824 
     13 C13        32.4548   26.9401    0.0752 C.ar      12 UNK        -0.0762 
     14 C14        32.7251   25.6101   -0.2623 C.ar      12 UNK        -0.0782 
     15 C15        32.2029   27.9662   -1.0237 C.3       12 UNK         0.0230 
     16 S16        30.6116   28.8338   -0.8494 S.3       12 UNK        -0.2608 
     17 C17        29.4091   27.5136   -1.2132 C.3       12 UNK        -0.0989 
     18 CA         27.9770   27.9527   -0.8160 C.3       5 UNK         0.0716 
     19 N          26.9612   27.0942   -1.4142 N.am      5 UNK        -0.4135 
     20 C          25.7855   27.5157   -1.8978 C.2       4 UNK         0.5031 
     21 O          25.4949   28.6999   -2.0708 O.2       4 UNK        -0.5229 
     22 CA         24.7331   26.4294   -2.1693 C.3       4 UNK         0.0329 
     23 CB         25.0224   25.7014   -3.4918 C.3       4 UNK        -0.2001 
     24 N          24.6755   25.4609   -1.0715 N.am      4 UNK        -0.4303 
     25 C          24.1459   25.7052    0.1348 C.2       3 UNK         0.5044 
     26 O          23.5628   26.7479    0.4305 O.2       3 UNK        -0.5152 
     27 CA         24.3185   24.6150    1.1985 C.3       3 UNK         0.0319 
     28 CB         24.0983   23.1902    0.6537 C.3       3 UNK        -0.2001 
     29 N          25.6553   24.7234    1.7773 N.am      3 UNK        -0.4354 
     30 C          25.9396   24.6550    3.0858 C.2       2 UNK         0.4964 
     31 O          25.0857   24.4829    3.9575 O.2       2 UNK        -0.5047 
     32 CA         27.4180   24.8249    3.4985 C.3       2 UNK         0.0288 
     33 CB         27.7699   24.0956    4.8134 C.3       2 UNK        -0.2113 
     34 N          28.3662   24.4886    2.4294 N.am      2 UNK        -0.4145 
     35 C          28.5696   23.2838    1.8760 C.2       1 UNK         0.5006 
     36 O          28.0157   22.2456    2.2463 O.2       1 UNK        -0.5103 
     37 C          27.7201   27.9115    0.6993 C.2       5 UNK         0.5055 
     38 O          28.3707   27.1487    1.4146 O.2       5 UNK        -0.5220 
     39 N          26.6994   28.6611    1.1382 N.am      6 UNK        -0.4450 
     40 CA         26.1877   28.6573    2.5105 C.3       6 UNK         0.0367 
     41 CB         24.8778   29.4591    2.5702 C.3       6 UNK        -0.1929 
     42 C          27.1901   29.1881    3.5474 C.2       6 UNK         0.5070 
     43 O          27.2260   28.6729    4.6648 O.2       6 UNK        -0.5237 
     44 N          27.9732   30.2018    3.1621 N.am      7 UNK        -0.4739 
     45 CA         28.9921   30.8322    3.9921 C.3       7 UNK         0.0276 
     46 CB         28.3391   31.7959    5.0032 C.3       7 UNK        -0.1927 
     47 C          29.9768   31.5721    3.0831 C.2       7 UNK         0.5013 
     48 O          29.5694   32.5198    2.4077 O.2       7 UNK        -0.5193 
     49 N          31.2431   31.1477    3.0914 N.am      8 UNK        -0.4253 
     50 CA         32.3718   31.8060    2.4390 C.3       8 UNK         0.0242 
     51 CB         32.3262   31.6103    0.9125 C.3       8 UNK        -0.2000 
     52 C          33.6576   31.2044    3.0099 C.2       8 UNK         0.4948 
     53 O          33.6463   30.0424    3.4241 O.2       8 UNK        -0.5275 
     54 N          34.7431   31.9908    3.0049 N.am      9 UNK        -0.4246 
     55 CA         36.0941   31.6141    3.4408 C.3       9 UNK         0.0261 
     56 CB         36.7600   30.7205    2.3681 C.3       9 UNK        -0.1959 
     57 C          36.0953   31.0032    4.8578 C.2       9 UNK         0.5033 
     58 O          35.7775   31.7110    5.8155 O.2       9 UNK        -0.5390 
     59 N          36.4010   29.7023    4.9590 N.am      10 UNK        -0.4215 
     60 CA         36.4261   28.9138    6.1936 C.3       10 UNK         0.0240 
     61 CB         36.9688   27.5103    5.8761 C.3       10 UNK        -0.1982 
     62 C          35.0751   28.8086    6.9278 C.2       10 UNK         0.4970 
     63 O          35.0851   28.5493    8.1321 O.2       10 UNK        -0.4916 
     64 N          33.9576   29.0078    6.2166 N.am      11 UNK        -0.4279 
     65 CA         32.5976   29.0366    6.7757 C.3       11 UNK         0.1003 
     66 C          31.9297   30.4378    6.6892 C.2       11 UNK         0.5709 
     67 N          32.6519   31.5010    6.3512 N.am      11 UNK        -0.7358 
     68 O          30.7428   30.5749    6.9690 O.2       11 UNK        -0.4999 
     69 C69        31.7173   27.8671    6.2479 C.3       12 UNK        -0.0954 
     70 S70        31.4262   27.8307    4.4447 S.3       12 UNK        -0.2268 
     71 C71        32.8225   26.7969    3.8940 C.3       12 UNK         0.0203 
     72 H72        27.6673   21.6612   -2.4997 H         1 UNK         0.0888 
     73 H73        26.1797   22.5825   -2.2879 H         1 UNK         0.0888 
     74 H74        27.4990   23.2447   -3.2587 H         1 UNK         0.0888 
     75 H75        29.2091   21.8697   -0.8851 H         1 UNK         0.3017 
     76 H76        29.8941   24.2415    0.4739 H         1 UNK         0.0873 
     77 H77        30.4677   21.3219    1.2245 H         1 UNK         0.0745 
     78 H78        31.2607   22.7036    1.9305 H         1 UNK         0.0745 
     79 H79        33.7609   22.6943    1.2206 H         1 UNK         0.0705 
     80 H80        34.1888   23.2585   -0.3734 H         1 UNK         0.0705 
     81 H81        33.2381   24.3374    2.8407 H         1 UNK         0.1334 
     82 H82        32.2929   28.3564    1.6880 H         1 UNK         0.1417 
     83 H83        32.7338   25.3052   -1.3001 H         1 UNK         0.1562 
     84 H84        32.2435   27.5032   -2.0109 H         1 UNK         0.0748 
     85 H85        33.0063   28.7035   -1.0003 H         1 UNK         0.0748 
     86 H86        29.7013   26.5831   -0.7223 H         1 UNK         0.0940 
     87 H87        29.4538   27.3159   -2.2852 H         1 UNK         0.0940 
     88 H88        27.8339   28.9802   -1.1587 H         1 UNK         0.0703 
     89 H89        27.0880   26.0957   -1.2499 H         1 UNK         0.3081 
     90 H90        23.7583   26.9149   -2.2531 H         1 UNK         0.0719 
     91 H91        25.9946   25.2084   -3.4812 H         1 UNK         0.0809 
     92 H92        24.2647   24.9468   -3.7036 H         1 UNK         0.0809 
     93 H93        25.0232   26.4023   -4.3277 H         1 UNK         0.0809 
     94 H94        25.2062   24.6092   -1.1915 H         1 UNK         0.2990 
     95 H95        23.5602   24.8044    1.9614 H         1 UNK         0.0690 
     96 H96        23.1487   23.1143    0.1221 H         1 UNK         0.0788 
     97 H97        24.0707   22.4654    1.4676 H         1 UNK         0.0788 
     98 H98        24.8886   22.8804   -0.0299 H         1 UNK         0.0788 
     99 H99        26.4145   24.8624    1.1189 H         1 UNK         0.2993 
    100 H100       27.5503   25.8920    3.6828 H         1 UNK         0.0949 
    101 H101       28.8178   24.2394    5.0771 H         1 UNK         0.0767 
    102 H102       27.1741   24.4786    5.6428 H         1 UNK         0.0767 
    103 H103       27.5819   23.0237    4.7481 H         1 UNK         0.0767 
    104 H104       28.8000   25.3042    2.0030 H         1 UNK         0.3013 
    105 H105       26.1911   29.2200    0.4663 H         1 UNK         0.3121 
    106 H106       25.9583   27.6237    2.7735 H         1 UNK         0.0774 
    107 H107       25.0280   30.5027    2.2910 H         1 UNK         0.0815 
    108 H108       24.4609   29.4483    3.5783 H         1 UNK         0.0815 
    109 H109       24.1232   29.0375    1.9060 H         1 UNK         0.0815 
    110 H110       27.8945   30.5593    2.2193 H         1 UNK         0.2987 
    111 H111       29.5276   30.0586    4.5451 H         1 UNK         0.0949 
    112 H112       27.7179   32.5426    4.5074 H         1 UNK         0.0806 
    113 H113       27.7151   31.2598    5.7181 H         1 UNK         0.0806 
    114 H114       29.0974   32.3299    5.5772 H         1 UNK         0.0806 
    115 H115       31.5110   30.3418    3.6461 H         1 UNK         0.3010 
    116 H116       32.3381   32.8711    2.6777 H         1 UNK         0.0829 
    117 H117       31.3939   31.9729    0.4800 H         1 UNK         0.0813 
    118 H118       33.1386   32.1503    0.4252 H         1 UNK         0.0813 
    119 H119       32.4328   30.5597    0.6464 H         1 UNK         0.0813 
    120 H120       34.6433   32.9412    2.6762 H         1 UNK         0.3038 
    121 H121       36.6722   32.5370    3.5085 H         1 UNK         0.0769 
    122 H122       37.7795   30.4528    2.6498 H         1 UNK         0.0811 
    123 H123       36.2043   29.7983    2.1923 H         1 UNK         0.0811 
    124 H124       36.8249   31.2447    1.4145 H         1 UNK         0.0811 
    125 H125       36.6026   29.2045    4.1041 H         1 UNK         0.3204 
    126 H126       37.1230   29.4038    6.8767 H         1 UNK         0.0748 
    127 H127       37.0353   26.9025    6.7798 H         1 UNK         0.0771 
    128 H128       36.3256   26.9788    5.1733 H         1 UNK         0.0771 
    129 H129       37.9701   27.5579    5.4476 H         1 UNK         0.0771 
    130 H130       34.0228   29.2511    5.2320 H         1 UNK         0.2980 
    131 H131       32.6638   28.8774    7.8529 H         1 UNK         0.0545 
    132 H132       32.2090   32.4050    6.3317 H         1 UNK         0.3459 
    133 H133       33.6464   31.4232    6.1813 H         1 UNK         0.3459 
    134 H134       30.7412   27.8867    6.7357 H         1 UNK         0.0616 
    135 H135       32.1627   26.9183    6.5497 H         1 UNK         0.0616 
    136 H136       33.7558   27.3381    4.0471 H         1 UNK         0.0634 
    137 H137       32.8683   25.9112    4.5291 H         1 UNK         0.0634 
@<TRIPOS>BOND
     1    1    2 1    
     2    1   72 1    
     3    1   73 1    
     4    1   74 1    
     5    2    3 2    
     6    2    4 am   BACKBONE|DICT|INTERRES
     7    4    5 1    
     8    4   75 1    
     9    5    6 1    
    10    5   35 1    
    11    5   76 1    
    12    6    7 1    
    13    6   77 1    
    14    6   78 1    
    15    7    8 1    
    16    8    9 1    
    17    8   79 1    
    18    8   80 1    
    19    9   10 ar   
    20    9   14 ar   
    21   10   11 ar   
    22   10   81 1    
    23   11   12 ar   
    24   11   71 1    
    25   12   13 ar   
    26   12   82 1    
    27   13   14 ar   
    28   13   15 1    
    29   14   83 1    
    30   15   16 1    
    31   15   84 1    
    32   15   85 1    
    33   16   17 1    
    34   17   18 1    
    35   17   86 1    
    36   17   87 1    
    37   18   19 1    
    38   18   37 1    
    39   18   88 1    
    40   19   20 am   BACKBONE|DICT|INTERRES
    41   19   89 1    
    42   20   21 2    
    43   20   22 1    
    44   22   23 1    
    45   22   24 1    
    46   22   90 1    
    47   23   91 1    
    48   23   92 1    
    49   23   93 1    
    50   24   25 am   BACKBONE|DICT|INTERRES
    51   24   94 1    
    52   25   26 2    
    53   25   27 1    
    54   27   28 1    
    55   27   29 1    
    56   27   95 1    
    57   28   96 1    
    58   28   97 1    
    59   28   98 1    
    60   29   30 am   BACKBONE|DICT|INTERRES
    61   29   99 1    
    62   30   31 2    
    63   30   32 1    
    64   32   33 1    
    65   32   34 1    
    66   32  100 1    
    67   33  101 1    
    68   33  102 1    
    69   33  103 1    
    70   34   35 am   BACKBONE|DICT|INTERRES
    71   34  104 1    
    72   35   36 2    
    73   37   38 2    
    74   37   39 am   BACKBONE|DICT|INTERRES
    75   39   40 1    
    76   39  105 1    
    77   40   41 1    
    78   40   42 1    
    79   40  106 1    
    80   41  107 1    
    81   41  108 1    
    82   41  109 1    
    83   42   43 2    
    84   42   44 am   BACKBONE|DICT|INTERRES
    85   44   45 1    
    86   44  110 1    
    87   45   46 1    
    88   45   47 1    
    89   45  111 1    
    90   46  112 1    
    91   46  113 1    
    92   46  114 1    
    93   47   48 2    
    94   47   49 am   BACKBONE|DICT|INTERRES
    95   49   50 1    
    96   49  115 1    
    97   50   51 1    
    98   50   52 1    
    99   50  116 1    
   100   51  117 1    
   101   51  118 1    
   102   51  119 1    
   103   52   53 2    
   104   52   54 am   BACKBONE|DICT|INTERRES
   105   54   55 1    
   106   54  120 1    
   107   55   56 1    
   108   55   57 1    
   109   55  121 1    
   110   56  122 1    
   111   56  123 1    
   112   56  124 1    
   113   57   58 2    
   114   57   59 am   BACKBONE|DICT|INTERRES
   115   59   60 1    
   116   59  125 1    
   117   60   61 1    
   118   60   62 1    
   119   60  126 1    
   120   61  127 1    
   121   61  128 1    
   122   61  129 1    
   123   62   63 2    
   124   62   64 am   BACKBONE|DICT|INTERRES
   125   64   65 1    
   126   64  130 1    
   127   65   66 1    
   128   65   69 1    
   129   65  131 1    
   130   66   67 am   BACKBONE|DICT|INTERRES
   131   66   68 2    
   132   67  132 1    
   133   67  133 1    
   134   69   70 1    
   135   69  134 1    
   136   69  135 1    
   137   70   71 1    
   138   71  136 1    
   139   71  137 1    
@<TRIPOS>SUBSTRUCTURE
     1 UNK         1 GROUP             0       ****    0 ROOT    
