@<TRIPOS>MOLECULE
3R136
137   139    1
SMALL
USER_CHARGES


@<TRIPOS>ATOM
      1 CA         29.0259   16.4981   -0.6881 C.3       0 UNK        -0.1979 
      2 C          29.0121   18.0163   -0.7907 C.2       0 UNK         0.4864 
      3 O          28.4774   18.5588   -1.7593 O.2       0 UNK        -0.5359 
      4 N          29.6028   18.7050    0.1948 N.am      1 UNK        -0.4318 
      5 CA         29.6247   20.1664    0.2943 C.3       1 UNK         0.0824 
      6 C6         30.7076   20.6350    1.3000 C.3       12 UNK        -0.0944 
      7 S7         30.9369   22.4480    1.3392 S.3       12 UNK        -0.2672 
      8 C8         30.1998   22.8302    2.9661 C.3       12 UNK         0.0333 
      9 C9         30.0274   24.3208    3.2510 C.ar      12 UNK        -0.0807 
     10 C10        30.9727   25.2652    2.8342 C.ar      12 UNK        -0.0894 
     11 C11        30.8176   26.6190    3.1473 C.ar      12 UNK        -0.0804 
     12 C12        29.7106   27.0304    3.8966 C.ar      12 UNK        -0.0824 
     13 C13        28.7533   26.1001    4.3146 C.ar      12 UNK        -0.0762 
     14 C14        28.9189   24.7506    3.9883 C.ar      12 UNK        -0.0782 
     15 C15        27.5460   26.5397    5.1335 C.3       12 UNK         0.0230 
     16 S16        26.0658   26.7877    4.0972 S.3       12 UNK        -0.2608 
     17 C17        26.4441   28.3830    3.2983 C.3       12 UNK        -0.0989 
     18 CA         27.0047   28.1975    1.8631 C.3       5 UNK         0.0716 
     19 N          26.0510   27.5908    0.9319 N.am      5 UNK        -0.4135 
     20 C          24.9660   28.1656    0.3900 C.2       4 UNK         0.5031 
     21 O          24.5406   29.2723    0.7262 O.2       4 UNK        -0.5229 
     22 CA         24.2463   27.3869   -0.7378 C.3       4 UNK         0.0329 
     23 CB         23.6184   28.3297   -1.7863 C.3       4 UNK        -0.2001 
     24 N          25.0853   26.3753   -1.4003 N.am      4 UNK        -0.4303 
     25 C          26.2745   26.5665   -1.9960 C.2       3 UNK         0.5044 
     26 O          26.7911   27.6747   -2.1458 O.2       3 UNK        -0.5152 
     27 CA         27.0485   25.3008   -2.4242 C.3       3 UNK         0.0319 
     28 CB         28.5714   25.5496   -2.4850 C.3       3 UNK        -0.2001 
     29 N          26.7736   24.1092   -1.6027 N.am      3 UNK        -0.4354 
     30 C          26.8691   23.9979   -0.2668 C.2       2 UNK         0.4964 
     31 O          27.1387   24.9310    0.4887 O.2       2 UNK        -0.5047 
     32 CA         26.6479   22.5987    0.3107 C.3       2 UNK         0.0288 
     33 CB         25.3767   21.9140   -0.2346 C.3       2 UNK        -0.2113 
     34 N          27.8420   21.8148    0.0201 N.am      2 UNK        -0.4145 
     35 C          28.2244   20.7050    0.6596 C.2       1 UNK         0.5006 
     36 O          27.5565   20.1408    1.5309 O.2       1 UNK        -0.5103 
     37 C          27.6618   29.4756    1.2928 C.2       5 UNK         0.5055 
     38 O          27.8691   30.4429    2.0283 O.2       5 UNK        -0.5220 
     39 N          28.0007   29.4658   -0.0062 N.am      6 UNK        -0.4450 
     40 CA         28.8125   30.5049   -0.6440 C.3       6 UNK         0.0367 
     41 CB         28.8960   30.2377   -2.1549 C.3       6 UNK        -0.1929 
     42 C          30.2192   30.5566   -0.0212 C.2       6 UNK         0.5070 
     43 O          30.8398   29.5063    0.1464 O.2       6 UNK        -0.5237 
     44 N          30.6797   31.7705    0.3108 N.am      7 UNK        -0.4739 
     45 CA         31.9347   32.0742    1.0138 C.3       7 UNK         0.0276 
     46 CB         33.1678   31.6342    0.1942 C.3       7 UNK        -0.1927 
     47 C          31.9659   31.5533    2.4660 C.2       7 UNK         0.5013 
     48 O          33.0264   31.1570    2.9541 O.2       7 UNK        -0.5193 
     49 N          30.8184   31.6117    3.1629 N.am      8 UNK        -0.4253 
     50 CA         30.6633   31.2373    4.5781 C.3       8 UNK         0.0242 
     51 CB         29.2138   31.4753    5.0291 C.3       8 UNK        -0.2000 
     52 C          31.6320   31.9484    5.5408 C.2       8 UNK         0.4948 
     53 O          32.0264   31.3531    6.5423 O.2       8 UNK        -0.5275 
     54 N          32.0344   33.1815    5.2018 N.am      9 UNK        -0.4246 
     55 CA         33.0536   33.9553    5.9147 C.3       9 UNK         0.0261 
     56 CB         33.0863   35.3861    5.3532 C.3       9 UNK        -0.1959 
     57 C          34.4607   33.3267    5.8678 C.2       9 UNK         0.5033 
     58 O          35.2444   33.5623    6.7887 O.2       9 UNK        -0.5390 
     59 N          34.7600   32.5470    4.8178 N.am      10 UNK        -0.4215 
     60 CA         36.0004   31.7816    4.6921 C.3       10 UNK         0.0240 
     61 CB         36.3771   31.6321    3.2081 C.3       10 UNK        -0.1982 
     62 C          35.8707   30.4070    5.3649 C.2       10 UNK         0.4970 
     63 O          36.8157   29.9753    6.0266 O.2       10 UNK        -0.4916 
     64 N          34.7166   29.7477    5.1873 N.am      11 UNK        -0.4279 
     65 CA         34.4133   28.4392    5.7907 C.3       11 UNK         0.1003 
     66 C          34.2565   28.4718    7.3364 C.2       11 UNK         0.5709 
     67 N          33.6976   29.5242    7.9192 N.am      11 UNK        -0.7358 
     68 O          34.6574   27.5298    8.0161 O.2       11 UNK        -0.4999 
     69 C69        33.1904   27.7573    5.1282 C.3       12 UNK        -0.0954 
     70 S70        33.4876   27.3885    3.3690 S.3       12 UNK        -0.2268 
     71 C71        31.8352   27.6359    2.6486 C.3       12 UNK         0.0203 
     72 H72        29.5421   16.1544    0.2082 H         1 UNK         0.0888 
     73 H73        28.0061   16.1152   -0.6596 H         1 UNK         0.0888 
     74 H74        29.5279   16.0678   -1.5542 H         1 UNK         0.0888 
     75 H75        29.9983   18.2055    0.9785 H         1 UNK         0.3017 
     76 H76        29.8958   20.5525   -0.6913 H         1 UNK         0.0873 
     77 H77        30.4887   20.2645    2.3036 H         1 UNK         0.0745 
     78 H78        31.6698   20.1979    1.0280 H         1 UNK         0.0745 
     79 H79        30.8254   22.3972    3.7477 H         1 UNK         0.0705 
     80 H80        29.2314   22.3313    3.0297 H         1 UNK         0.0705 
     81 H81        31.8391   24.9514    2.2686 H         1 UNK         0.1334 
     82 H82        29.5853   28.0758    4.1419 H         1 UNK         0.1417 
     83 H83        28.1813   24.0319    4.3191 H         1 UNK         0.1562 
     84 H84        27.7677   27.4502    5.6925 H         1 UNK         0.0748 
     85 H85        27.3209   25.7788    5.8823 H         1 UNK         0.0748 
     86 H86        27.1498   28.9209    3.9321 H         1 UNK         0.0940 
     87 H87        25.5395   28.9928    3.2799 H         1 UNK         0.0940 
     88 H88        27.8234   27.4799    1.9216 H         1 UNK         0.0703 
     89 H89        26.3107   26.6575    0.6229 H         1 UNK         0.3081 
     90 H90        23.4353   26.8411   -0.2535 H         1 UNK         0.0719 
     91 H91        24.3706   28.9574   -2.2656 H         1 UNK         0.0809 
     92 H92        23.1027   27.7693   -2.5661 H         1 UNK         0.0809 
     93 H93        22.8842   28.9941   -1.3291 H         1 UNK         0.0809 
     94 H94        24.7608   25.4219   -1.3188 H         1 UNK         0.2990 
     95 H95        26.7080   25.0673   -3.4340 H         1 UNK         0.0690 
     96 H96        28.9714   25.8377   -1.5118 H         1 UNK         0.0788 
     97 H97        28.8138   26.3492   -3.1863 H         1 UNK         0.0788 
     98 H98        29.1065   24.6599   -2.8168 H         1 UNK         0.0788 
     99 H99        26.5149   23.2808   -2.1213 H         1 UNK         0.2993 
    100 H100       26.5515   22.7056    1.3938 H         1 UNK         0.0949 
    101 H101       25.4651   21.6570   -1.2906 H         1 UNK         0.0767 
    102 H102       25.1652   20.9926    0.3082 H         1 UNK         0.0767 
    103 H103       24.5042   22.5587   -0.1206 H         1 UNK         0.0767 
    104 H104       28.4816   22.2353   -0.6411 H         1 UNK         0.3013 
    105 H105       27.7560   28.6664   -0.5808 H         1 UNK         0.3121 
    106 H106       28.3133   31.4636   -0.4884 H         1 UNK         0.0774 
    107 H107       29.4932   31.0010   -2.6553 H         1 UNK         0.0815 
    108 H108       29.3547   29.2709   -2.3673 H         1 UNK         0.0815 
    109 H109       27.9072   30.2455   -2.6140 H         1 UNK         0.0815 
    110 H110       30.0886   32.5684    0.1182 H         1 UNK         0.2987 
    111 H111       31.9773   33.1615    1.0936 H         1 UNK         0.0949 
    112 H112       33.2619   30.5487    0.1513 H         1 UNK         0.0806 
    113 H113       33.1219   32.0094   -0.8280 H         1 UNK         0.0806 
    114 H114       34.0874   32.0176    0.6381 H         1 UNK         0.0806 
    115 H115       29.9790   31.9013    2.6794 H         1 UNK         0.3010 
    116 H116       30.8697   30.1695    4.6533 H         1 UNK         0.0829 
    117 H117       29.0882   31.2391    6.0870 H         1 UNK         0.0813 
    118 H118       28.9109   32.5134    4.8884 H         1 UNK         0.0813 
    119 H119       28.5169   30.8445    4.4814 H         1 UNK         0.0813 
    120 H120       31.6444   33.5981    4.3691 H         1 UNK         0.3038 
    121 H121       32.7559   34.0061    6.9643 H         1 UNK         0.0769 
    122 H122       33.8173   35.9968    5.8853 H         1 UNK         0.0811 
    123 H123       32.1190   35.8776    5.4596 H         1 UNK         0.0811 
    124 H124       33.3581   35.4003    4.2970 H         1 UNK         0.0811 
    125 H125       34.0443   32.3515    4.1244 H         1 UNK         0.3204 
    126 H126       36.8105   32.3229    5.1858 H         1 UNK         0.0748 
    127 H127       37.3343   31.1200    3.1019 H         1 UNK         0.0771 
    128 H128       35.6384   31.0532    2.6529 H         1 UNK         0.0771 
    129 H129       36.4739   32.6038    2.7238 H         1 UNK         0.0771 
    130 H130       34.0057   30.1473    4.5875 H         1 UNK         0.2980 
    131 H131       35.2765   27.7994    5.5951 H         1 UNK         0.0545 
    132 H132       33.2678   30.2602    7.3635 H         1 UNK         0.3459 
    133 H133       33.6076   29.5401    8.9219 H         1 UNK         0.3459 
    134 H134       32.9563   26.8119    5.6214 H         1 UNK         0.0616 
    135 H135       32.3048   28.3852    5.2314 H         1 UNK         0.0616 
    136 H136       31.9180   27.5440    1.5653 H         1 UNK         0.0634 
    137 H137       31.5018   28.6546    2.8441 H         1 UNK         0.0634 
@<TRIPOS>BOND
     1    1    2 1    
     2    1   72 1    
     3    1   73 1    
     4    1   74 1    
     5    2    3 2    
     6    2    4 am   BACKBONE|DICT|INTERRES
     7    4    5 1    
     8    4   75 1    
     9    5    6 1    
    10    5   35 1    
    11    5   76 1    
    12    6    7 1    
    13    6   77 1    
    14    6   78 1    
    15    7    8 1    
    16    8    9 1    
    17    8   79 1    
    18    8   80 1    
    19    9   10 ar   
    20    9   14 ar   
    21   10   11 ar   
    22   10   81 1    
    23   11   12 ar   
    24   11   71 1    
    25   12   13 ar   
    26   12   82 1    
    27   13   14 ar   
    28   13   15 1    
    29   14   83 1    
    30   15   16 1    
    31   15   84 1    
    32   15   85 1    
    33   16   17 1    
    34   17   18 1    
    35   17   86 1    
    36   17   87 1    
    37   18   19 1    
    38   18   37 1    
    39   18   88 1    
    40   19   20 am   BACKBONE|DICT|INTERRES
    41   19   89 1    
    42   20   21 2    
    43   20   22 1    
    44   22   23 1    
    45   22   24 1    
    46   22   90 1    
    47   23   91 1    
    48   23   92 1    
    49   23   93 1    
    50   24   25 am   BACKBONE|DICT|INTERRES
    51   24   94 1    
    52   25   26 2    
    53   25   27 1    
    54   27   28 1    
    55   27   29 1    
    56   27   95 1    
    57   28   96 1    
    58   28   97 1    
    59   28   98 1    
    60   29   30 am   BACKBONE|DICT|INTERRES
    61   29   99 1    
    62   30   31 2    
    63   30   32 1    
    64   32   33 1    
    65   32   34 1    
    66   32  100 1    
    67   33  101 1    
    68   33  102 1    
    69   33  103 1    
    70   34   35 am   BACKBONE|DICT|INTERRES
    71   34  104 1    
    72   35   36 2    
    73   37   38 2    
    74   37   39 am   BACKBONE|DICT|INTERRES
    75   39   40 1    
    76   39  105 1    
    77   40   41 1    
    78   40   42 1    
    79   40  106 1    
    80   41  107 1    
    81   41  108 1    
    82   41  109 1    
    83   42   43 2    
    84   42   44 am   BACKBONE|DICT|INTERRES
    85   44   45 1    
    86   44  110 1    
    87   45   46 1    
    88   45   47 1    
    89   45  111 1    
    90   46  112 1    
    91   46  113 1    
    92   46  114 1    
    93   47   48 2    
    94   47   49 am   BACKBONE|DICT|INTERRES
    95   49   50 1    
    96   49  115 1    
    97   50   51 1    
    98   50   52 1    
    99   50  116 1    
   100   51  117 1    
   101   51  118 1    
   102   51  119 1    
   103   52   53 2    
   104   52   54 am   BACKBONE|DICT|INTERRES
   105   54   55 1    
   106   54  120 1    
   107   55   56 1    
   108   55   57 1    
   109   55  121 1    
   110   56  122 1    
   111   56  123 1    
   112   56  124 1    
   113   57   58 2    
   114   57   59 am   BACKBONE|DICT|INTERRES
   115   59   60 1    
   116   59  125 1    
   117   60   61 1    
   118   60   62 1    
   119   60  126 1    
   120   61  127 1    
   121   61  128 1    
   122   61  129 1    
   123   62   63 2    
   124   62   64 am   BACKBONE|DICT|INTERRES
   125   64   65 1    
   126   64  130 1    
   127   65   66 1    
   128   65   69 1    
   129   65  131 1    
   130   66   67 am   BACKBONE|DICT|INTERRES
   131   66   68 2    
   132   67  132 1    
   133   67  133 1    
   134   69   70 1    
   135   69  134 1    
   136   69  135 1    
   137   70   71 1    
   138   71  136 1    
   139   71  137 1    
@<TRIPOS>SUBSTRUCTURE
     1 UNK         1 GROUP             0       ****    0 ROOT    
