@<TRIPOS>MOLECULE
3R136
137   139    1
SMALL
USER_CHARGES


@<TRIPOS>ATOM
      1 CA         27.8091   18.6413    1.9263 C.3       0 UNK        -0.1979 
      2 C          28.0024   19.1480    0.5045 C.2       0 UNK         0.4864 
      3 O          27.6393   18.4543   -0.4472 O.2       0 UNK        -0.5359 
      4 N          28.5779   20.3472    0.3557 N.am      1 UNK        -0.4318 
      5 CA         28.7674   21.0365   -0.9234 C.3       1 UNK         0.0824 
      6 C6         30.0001   21.9805   -0.8887 C.3       12 UNK        -0.0944 
      7 S7         29.9565   23.2708    0.4057 S.3       12 UNK        -0.2672 
      8 C8         31.0721   22.5523    1.6510 C.3       12 UNK         0.0333 
      9 C9         31.3119   23.5088    2.8095 C.ar      12 UNK        -0.0807 
     10 C10        32.5227   24.1995    2.9095 C.ar      12 UNK        -0.0894 
     11 C11        32.7670   25.0566    3.9872 C.ar      12 UNK        -0.0804 
     12 C12        31.7838   25.2251    4.9686 C.ar      12 UNK        -0.0824 
     13 C13        30.5750   24.5264    4.8894 C.ar      12 UNK        -0.0762 
     14 C14        30.3429   23.6740    3.8043 C.ar      12 UNK        -0.0782 
     15 C15        29.5492   24.6294    6.0100 C.3       12 UNK         0.0230 
     16 S16        28.0289   25.4844    5.4930 S.3       12 UNK        -0.2608 
     17 C17        28.4699   27.2494    5.6700 C.3       12 UNK        -0.0989 
     18 CA         28.5119   28.0095    4.3203 C.3       5 UNK         0.0716 
     19 N          27.3339   27.7371    3.4846 N.am      5 UNK        -0.4135 
     20 C          27.1731   28.1628    2.2268 C.2       4 UNK         0.5031 
     21 O          27.9647   28.9114    1.6492 O.2       4 UNK        -0.5229 
     22 CA         25.8925   27.7230    1.5037 C.3       4 UNK         0.0329 
     23 CB         24.8205   28.8220    1.5825 C.3       4 UNK        -0.2001 
     24 N          26.2006   27.4392    0.1027 N.am      4 UNK        -0.4303 
     25 C          26.7856   26.3079   -0.3070 C.2       3 UNK         0.5044 
     26 O          26.9663   25.3286    0.4194 O.2       3 UNK        -0.5152 
     27 CA         27.3054   26.2978   -1.7530 C.3       3 UNK         0.0319 
     28 CB         28.7512   26.8217   -1.7968 C.3       3 UNK        -0.2001 
     29 N          27.2700   24.9505   -2.3212 N.am      3 UNK        -0.4354 
     30 C          26.1606   24.3391   -2.7581 C.2       2 UNK         0.4964 
     31 O          25.0553   24.8812   -2.8056 O.2       2 UNK        -0.5047 
     32 CA         26.3010   22.8832   -3.2421 C.3       2 UNK         0.0288 
     33 CB         26.4329   22.8374   -4.7737 C.3       2 UNK        -0.2113 
     34 N          27.4315   22.1672   -2.6409 N.am      2 UNK        -0.4145 
     35 C          27.4724   21.7541   -1.3657 C.2       1 UNK         0.5006 
     36 O          26.5445   21.9187   -0.5679 O.2       1 UNK        -0.5103 
     37 C          28.7263   29.5201    4.5604 C.2       5 UNK         0.5055 
     38 O          29.8695   29.9778    4.5891 O.2       5 UNK        -0.5220 
     39 N          27.6202   30.2676    4.6978 N.am      6 UNK        -0.4450 
     40 CA         27.6072   31.7250    4.8326 C.3       6 UNK         0.0367 
     41 CB         26.2218   32.1863    5.3121 C.3       6 UNK        -0.1929 
     42 C          27.9953   32.4454    3.5309 C.2       6 UNK         0.5070 
     43 O          28.7225   33.4356    3.5892 O.2       6 UNK        -0.5237 
     44 N          27.5441   31.9243    2.3796 N.am      7 UNK        -0.4739 
     45 CA         27.8988   32.4331    1.0479 C.3       7 UNK         0.0276 
     46 CB         26.9648   31.8299   -0.0133 C.3       7 UNK        -0.1927 
     47 C          29.3708   32.1586    0.6997 C.2       7 UNK         0.5013 
     48 O          30.0216   33.0063    0.0889 O.2       7 UNK        -0.5193 
     49 N          29.8786   31.0038    1.1507 N.am      8 UNK        -0.4253 
     50 CA         31.2932   30.6297    1.1205 C.3       8 UNK         0.0242 
     51 CB         31.4068   29.1101    1.3379 C.3       8 UNK        -0.2000 
     52 C          32.1562   31.3862    2.1517 C.2       8 UNK         0.4948 
     53 O          33.3738   31.2076    2.1389 O.2       8 UNK        -0.5275 
     54 N          31.5339   32.1774    3.0429 N.am      9 UNK        -0.4246 
     55 CA         32.1395   32.9441    4.1409 C.3       9 UNK         0.0261 
     56 CB         32.9596   34.1263    3.5836 C.3       9 UNK        -0.1959 
     57 C          32.9468   32.0576    5.1089 C.2       9 UNK         0.5033 
     58 O          34.0552   32.4245    5.5075 O.2       9 UNK        -0.5390 
     59 N          32.4001   30.8687    5.4103 N.am      10 UNK        -0.4215 
     60 CA         33.0152   29.7722    6.1699 C.3       10 UNK         0.0240 
     61 CB         33.1607   30.1560    7.6574 C.3       10 UNK        -0.1982 
     62 C          34.3359   29.2533    5.5591 C.2       10 UNK         0.4970 
     63 O          35.1335   28.6443    6.2738 O.2       10 UNK        -0.4916 
     64 N          34.5400   29.4991    4.2567 N.am      11 UNK        -0.4279 
     65 CA         35.7462   29.1844    3.4775 C.3       11 UNK         0.1003 
     66 C          37.0087   29.9914    3.9084 C.2       11 UNK         0.5709 
     67 N          36.8675   31.1122    4.6095 N.am      11 UNK        -0.7358 
     68 O          38.1328   29.6186    3.5796 O.2       11 UNK        -0.4999 
     69 C69        36.0024   27.6576    3.3251 C.3       12 UNK        -0.0954 
     70 S70        34.5399   26.7695    2.6848 S.3       12 UNK        -0.2268 
     71 C71        34.1162   25.7476    4.1299 C.3       12 UNK         0.0203 
     72 H72        28.3287   17.6930    2.0609 H         1 UNK         0.0888 
     73 H73        28.1914   19.3449    2.6658 H         1 UNK         0.0888 
     74 H74        26.7499   18.4817    2.1264 H         1 UNK         0.0888 
     75 H75        28.7957   20.8995    1.1717 H         1 UNK         0.3017 
     76 H76        28.9710   20.2780   -1.6831 H         1 UNK         0.0873 
     77 H77        30.1298   22.4772   -1.8517 H         1 UNK         0.0745 
     78 H78        30.9032   21.3816   -0.7613 H         1 UNK         0.0745 
     79 H79        32.0196   22.2913    1.1766 H         1 UNK         0.0705 
     80 H80        30.6512   21.6198    2.0287 H         1 UNK         0.0705 
     81 H81        33.2852   24.0615    2.1549 H         1 UNK         0.1334 
     82 H82        31.9742   25.8712    5.8147 H         1 UNK         0.1417 
     83 H83        29.4104   23.1294    3.7410 H         1 UNK         0.1562 
     84 H84        29.9694   25.1192    6.8898 H         1 UNK         0.0748 
     85 H85        29.2830   23.6211    6.3306 H         1 UNK         0.0748 
     86 H86        29.4315   27.3389    6.1792 H         1 UNK         0.0940 
     87 H87        27.7343   27.6977    6.3412 H         1 UNK         0.0940 
     88 H88        29.3795   27.6475    3.7641 H         1 UNK         0.0703 
     89 H89        26.6516   27.1080    3.8833 H         1 UNK         0.3081 
     90 H90        25.5005   26.8202    1.9777 H         1 UNK         0.0719 
     91 H91        23.9034   28.5146    1.0795 H         1 UNK         0.0809 
     92 H92        24.5603   29.0422    2.6187 H         1 UNK         0.0809 
     93 H93        25.1544   29.7531    1.1251 H         1 UNK         0.0809 
     94 H94        26.1349   28.2149   -0.5398 H         1 UNK         0.2990 
     95 H95        26.6775   26.9527   -2.3613 H         1 UNK         0.0690 
     96 H96        29.1319   26.8555   -2.8176 H         1 UNK         0.0788 
     97 H97        29.4236   26.1970   -1.2065 H         1 UNK         0.0788 
     98 H98        28.8137   27.8338   -1.3934 H         1 UNK         0.0788 
     99 H99        28.1233   24.4155   -2.2656 H         1 UNK         0.2993 
    100 H100       25.3821   22.3617   -2.9642 H         1 UNK         0.0949 
    101 H101       26.4489   21.8108   -5.1406 H         1 UNK         0.0767 
    102 H102       25.5896   23.3371   -5.2529 H         1 UNK         0.0767 
    103 H103       27.3424   23.3326   -5.1166 H         1 UNK         0.0767 
    104 H104       28.2215   21.9837   -3.2430 H         1 UNK         0.3013 
    105 H105       26.7241   29.8033    4.6738 H         1 UNK         0.3121 
    106 H106       28.3400   32.0009    5.5944 H         1 UNK         0.0774 
    107 H107       26.1955   33.2694    5.4400 H         1 UNK         0.0815 
    108 H108       25.4368   31.9236    4.6018 H         1 UNK         0.0815 
    109 H109       25.9670   31.7428    6.2748 H         1 UNK         0.0815 
    110 H110       26.9981   31.0760    2.4115 H         1 UNK         0.2987 
    111 H111       27.7562   33.5162    1.0505 H         1 UNK         0.0949 
    112 H112       27.0811   30.7488   -0.0910 H         1 UNK         0.0806 
    113 H113       25.9193   32.0444    0.2083 H         1 UNK         0.0806 
    114 H114       27.1779   32.2483   -0.9979 H         1 UNK         0.0806 
    115 H115       29.2374   30.3290    1.5618 H         1 UNK         0.3010 
    116 H116       31.6890   30.8662    0.1307 H         1 UNK         0.0829 
    117 H117       30.8203   28.5570    0.6038 H         1 UNK         0.0813 
    118 H118       32.4410   28.7757    1.2445 H         1 UNK         0.0813 
    119 H119       31.0606   28.8181    2.3296 H         1 UNK         0.0813 
    120 H120       30.5263   32.2494    2.9815 H         1 UNK         0.3038 
    121 H121       31.3135   33.3566    4.7221 H         1 UNK         0.0769 
    122 H122       33.3217   34.7658    4.3895 H         1 UNK         0.0811 
    123 H123       32.3569   34.7488    2.9224 H         1 UNK         0.0811 
    124 H124       33.8304   33.7852    3.0225 H         1 UNK         0.0811 
    125 H125       31.4804   30.6524    5.0215 H         1 UNK         0.3204 
    126 H126       32.3133   28.9390    6.1103 H         1 UNK         0.0748 
    127 H127       33.4799   29.3011    8.2549 H         1 UNK         0.0771 
    128 H128       33.8986   30.9461    7.8003 H         1 UNK         0.0771 
    129 H129       32.2137   30.5021    8.0714 H         1 UNK         0.0771 
    130 H130       33.8562   30.0476    3.7480 H         1 UNK         0.2980 
    131 H131       35.5310   29.5588    2.4765 H         1 UNK         0.0545 
    132 H132       37.6872   31.6340    4.8751 H         1 UNK         0.3459 
    133 H133       35.9484   31.4440    4.8748 H         1 UNK         0.3459 
    134 H134       36.8198   27.4802    2.6244 H         1 UNK         0.0616 
    135 H135       36.3214   27.2234    4.2738 H         1 UNK         0.0616 
    136 H136       34.1283   26.3704    5.0243 H         1 UNK         0.0634 
    137 H137       34.8904   24.9920    4.2694 H         1 UNK         0.0634 
@<TRIPOS>BOND
     1    1    2 1    
     2    1   72 1    
     3    1   73 1    
     4    1   74 1    
     5    2    3 2    
     6    2    4 am   BACKBONE|DICT|INTERRES
     7    4    5 1    
     8    4   75 1    
     9    5    6 1    
    10    5   35 1    
    11    5   76 1    
    12    6    7 1    
    13    6   77 1    
    14    6   78 1    
    15    7    8 1    
    16    8    9 1    
    17    8   79 1    
    18    8   80 1    
    19    9   10 ar   
    20    9   14 ar   
    21   10   11 ar   
    22   10   81 1    
    23   11   12 ar   
    24   11   71 1    
    25   12   13 ar   
    26   12   82 1    
    27   13   14 ar   
    28   13   15 1    
    29   14   83 1    
    30   15   16 1    
    31   15   84 1    
    32   15   85 1    
    33   16   17 1    
    34   17   18 1    
    35   17   86 1    
    36   17   87 1    
    37   18   19 1    
    38   18   37 1    
    39   18   88 1    
    40   19   20 am   BACKBONE|DICT|INTERRES
    41   19   89 1    
    42   20   21 2    
    43   20   22 1    
    44   22   23 1    
    45   22   24 1    
    46   22   90 1    
    47   23   91 1    
    48   23   92 1    
    49   23   93 1    
    50   24   25 am   BACKBONE|DICT|INTERRES
    51   24   94 1    
    52   25   26 2    
    53   25   27 1    
    54   27   28 1    
    55   27   29 1    
    56   27   95 1    
    57   28   96 1    
    58   28   97 1    
    59   28   98 1    
    60   29   30 am   BACKBONE|DICT|INTERRES
    61   29   99 1    
    62   30   31 2    
    63   30   32 1    
    64   32   33 1    
    65   32   34 1    
    66   32  100 1    
    67   33  101 1    
    68   33  102 1    
    69   33  103 1    
    70   34   35 am   BACKBONE|DICT|INTERRES
    71   34  104 1    
    72   35   36 2    
    73   37   38 2    
    74   37   39 am   BACKBONE|DICT|INTERRES
    75   39   40 1    
    76   39  105 1    
    77   40   41 1    
    78   40   42 1    
    79   40  106 1    
    80   41  107 1    
    81   41  108 1    
    82   41  109 1    
    83   42   43 2    
    84   42   44 am   BACKBONE|DICT|INTERRES
    85   44   45 1    
    86   44  110 1    
    87   45   46 1    
    88   45   47 1    
    89   45  111 1    
    90   46  112 1    
    91   46  113 1    
    92   46  114 1    
    93   47   48 2    
    94   47   49 am   BACKBONE|DICT|INTERRES
    95   49   50 1    
    96   49  115 1    
    97   50   51 1    
    98   50   52 1    
    99   50  116 1    
   100   51  117 1    
   101   51  118 1    
   102   51  119 1    
   103   52   53 2    
   104   52   54 am   BACKBONE|DICT|INTERRES
   105   54   55 1    
   106   54  120 1    
   107   55   56 1    
   108   55   57 1    
   109   55  121 1    
   110   56  122 1    
   111   56  123 1    
   112   56  124 1    
   113   57   58 2    
   114   57   59 am   BACKBONE|DICT|INTERRES
   115   59   60 1    
   116   59  125 1    
   117   60   61 1    
   118   60   62 1    
   119   60  126 1    
   120   61  127 1    
   121   61  128 1    
   122   61  129 1    
   123   62   63 2    
   124   62   64 am   BACKBONE|DICT|INTERRES
   125   64   65 1    
   126   64  130 1    
   127   65   66 1    
   128   65   69 1    
   129   65  131 1    
   130   66   67 am   BACKBONE|DICT|INTERRES
   131   66   68 2    
   132   67  132 1    
   133   67  133 1    
   134   69   70 1    
   135   69  134 1    
   136   69  135 1    
   137   70   71 1    
   138   71  136 1    
   139   71  137 1    
@<TRIPOS>SUBSTRUCTURE
     1 UNK         1 GROUP             0       ****    0 ROOT    
