@<TRIPOS>MOLECULE
3R136
137   139    1
SMALL
USER_CHARGES


@<TRIPOS>ATOM
      1 CA         31.3106   19.0145   -2.4979 C.3       0 UNK        -0.1979 
      2 C          31.5181   20.3129   -1.7316 C.2       0 UNK         0.4864 
      3 O          32.6548   20.6491   -1.3953 O.2       0 UNK        -0.5359 
      4 N          30.4294   21.0395   -1.4467 N.am      1 UNK        -0.4318 
      5 CA         30.4477   22.3451   -0.7805 C.3       1 UNK         0.0824 
      6 C6         29.0478   22.7023   -0.2224 C.3       12 UNK        -0.0944 
      7 S7         29.1288   23.9117    1.1415 S.3       12 UNK        -0.2672 
      8 C8         28.6427   22.8726    2.5520 C.3       12 UNK         0.0333 
      9 C9         28.5952   23.6905    3.8307 C.ar      12 UNK        -0.0807 
     10 C10        29.7818   24.0175    4.4905 C.ar      12 UNK        -0.0894 
     11 C11        29.7586   24.8000    5.6472 C.ar      12 UNK        -0.0804 
     12 C12        28.5329   25.2383    6.1575 C.ar      12 UNK        -0.0824 
     13 C13        27.3367   24.9195    5.5037 C.ar      12 UNK        -0.0762 
     14 C14        27.3738   24.1375    4.3440 C.ar      12 UNK        -0.0782 
     15 C15        26.0073   25.4331    6.0412 C.3       12 UNK         0.0230 
     16 S16        25.9232   27.2542    6.0344 S.3       12 UNK        -0.2608 
     17 C17        25.6286   27.6519    4.2719 C.3       12 UNK        -0.0989 
     18 CA         26.8705   27.5900    3.3272 C.3       5 UNK         0.0716 
     19 N          26.5066   27.7213    1.9179 N.am      5 UNK        -0.4135 
     20 C          25.7458   26.8817    1.2042 C.2       4 UNK         0.5031 
     21 O          25.2580   25.8421    1.6489 O.2       4 UNK        -0.5229 
     22 CA         25.4687   27.2791   -0.2567 C.3       4 UNK         0.0329 
     23 CB         24.4036   28.3865   -0.3268 C.3       4 UNK        -0.2001 
     24 N          26.6790   27.7155   -0.9565 N.am      4 UNK        -0.4303 
     25 C          27.6406   26.8836   -1.3784 C.2       3 UNK         0.5044 
     26 O          27.5582   25.6573   -1.3025 O.2       3 UNK        -0.5152 
     27 CA         28.9034   27.5123   -1.9887 C.3       3 UNK         0.0319 
     28 CB         29.1805   28.9449   -1.4854 C.3       3 UNK        -0.2001 
     29 N          30.0346   26.6330   -1.6993 N.am      3 UNK        -0.4354 
     30 C          31.1991   26.6088   -2.3585 C.2       2 UNK         0.4964 
     31 O          31.4767   27.3738   -3.2830 O.2       2 UNK        -0.5047 
     32 CA         32.2436   25.5645   -1.9195 C.3       2 UNK         0.0288 
     33 CB         33.3424   26.2244   -1.0694 C.3       2 UNK        -0.2113 
     34 N          31.6769   24.4332   -1.1775 N.am      2 UNK        -0.4145 
     35 C          30.9745   23.4380   -1.7363 C.2       1 UNK         0.5006 
     36 O          30.7231   23.3721   -2.9433 O.2       1 UNK        -0.5103 
     37 C          27.9465   28.6530    3.6287 C.2       5 UNK         0.5055 
     38 O          28.3004   29.4396    2.7433 O.2       5 UNK        -0.5220 
     39 N          28.4422   28.6626    4.8724 N.am      6 UNK        -0.4450 
     40 CA         29.5143   29.4961    5.4363 C.3       6 UNK         0.0367 
     41 CB         29.6732   29.1302    6.9220 C.3       6 UNK        -0.1929 
     42 C          29.3537   31.0222    5.2833 C.2       6 UNK         0.5070 
     43 O          30.3204   31.7517    5.5016 O.2       6 UNK        -0.5237 
     44 N          28.1577   31.4894    4.9028 N.am      7 UNK        -0.4739 
     45 CA         27.8995   32.8706    4.4894 C.3       7 UNK         0.0276 
     46 CB         26.3811   33.0855    4.3822 C.3       7 UNK        -0.1927 
     47 C          28.5914   33.2442    3.1620 C.2       7 UNK         0.5013 
     48 O          28.8484   34.4282    2.9390 O.2       7 UNK        -0.5193 
     49 N          28.8719   32.2441    2.3139 N.am      8 UNK        -0.4253 
     50 CA         29.5473   32.3964    1.0235 C.3       8 UNK         0.0242 
     51 CB         28.5180   32.2200   -0.1054 C.3       8 UNK        -0.2000 
     52 C          30.7253   31.4220    0.8494 C.2       8 UNK         0.4948 
     53 O          31.6762   31.7654    0.1452 O.2       8 UNK        -0.5275 
     54 N          30.6529   30.2311    1.4625 N.am      9 UNK        -0.4246 
     55 CA         31.6959   29.2030    1.4210 C.3       9 UNK         0.0261 
     56 CB         31.1066   27.8697    1.9170 C.3       9 UNK        -0.1959 
     57 C          32.9252   29.5947    2.2586 C.2       9 UNK         0.5033 
     58 O          32.8138   30.4042    3.1820 O.2       9 UNK        -0.5390 
     59 N          34.0710   28.9697    1.9508 N.am      10 UNK        -0.4215 
     60 CA         35.3755   29.2049    2.5874 C.3       10 UNK         0.0240 
     61 CB         36.4380   28.3438    1.8842 C.3       10 UNK        -0.1982 
     62 C          35.4157   28.9680    4.1105 C.2       10 UNK         0.4970 
     63 O          36.2643   29.5522    4.7855 O.2       10 UNK        -0.4916 
     64 N          34.4995   28.1374    4.6214 N.am      11 UNK        -0.4279 
     65 CA         34.2389   27.9385    6.0538 C.3       11 UNK         0.1003 
     66 C          33.5614   29.1451    6.7720 C.2       11 UNK         0.5709 
     67 N          33.0735   30.1596    6.0677 N.am      11 UNK        -0.7358 
     68 O          33.4903   29.1634    7.9986 O.2       11 UNK        -0.4999 
     69 C69        33.4814   26.6073    6.3046 C.3       12 UNK        -0.0954 
     70 S70        31.9157   26.4798    5.3766 S.3       12 UNK        -0.2268 
     71 C71        31.0649   25.1830    6.3229 C.3       12 UNK         0.0203 
     72 H72        30.2583   18.8339   -2.7172 H         1 UNK         0.0888 
     73 H73        31.8530   19.0461   -3.4424 H         1 UNK         0.0888 
     74 H74        31.6850   18.1719   -1.9172 H         1 UNK         0.0888 
     75 H75        29.5279   20.7304   -1.7810 H         1 UNK         0.3017 
     76 H76        31.1422   22.2605    0.0589 H         1 UNK         0.0873 
     77 H77        28.3927   23.0894   -1.0055 H         1 UNK         0.0745 
     78 H78        28.5533   21.8029    0.1483 H         1 UNK         0.0745 
     79 H79        27.6694   22.4211    2.3527 H         1 UNK         0.0705 
     80 H80        29.3527   22.0515    2.6626 H         1 UNK         0.0705 
     81 H81        30.7290   23.6856    4.0871 H         1 UNK         0.1334 
     82 H82        28.5084   25.8450    7.0526 H         1 UNK         0.1417 
     83 H83        26.4550   23.8996    3.8243 H         1 UNK         0.1562 
     84 H84        25.8851   25.0811    7.0665 H         1 UNK         0.0748 
     85 H85        25.1664   25.0277    5.4762 H         1 UNK         0.0748 
     86 H86        25.1759   28.6439    4.2222 H         1 UNK         0.0940 
     87 H87        24.8524   26.9691    3.9262 H         1 UNK         0.0940 
     88 H88        27.3624   26.6249    3.4229 H         1 UNK         0.0703 
     89 H89        26.9125   28.5374    1.4781 H         1 UNK         0.3081 
     90 H90        25.0709   26.4003   -0.7696 H         1 UNK         0.0719 
     91 H91        24.7415   29.3102    0.1448 H         1 UNK         0.0809 
     92 H92        24.1379   28.6150   -1.3591 H         1 UNK         0.0809 
     93 H93        23.4882   28.0781    0.1803 H         1 UNK         0.0809 
     94 H94        26.8070   28.7087   -1.0818 H         1 UNK         0.2990 
     95 H95        28.7569   27.5389   -3.0703 H         1 UNK         0.0690 
     96 H96        30.1559   29.3098   -1.8072 H         1 UNK         0.0788 
     97 H97        29.1518   28.9936   -0.3980 H         1 UNK         0.0788 
     98 H98        28.4425   29.6474   -1.8731 H         1 UNK         0.0788 
     99 H99        29.8447   25.9179   -1.0085 H         1 UNK         0.2993 
    100 H100       32.7080   25.1768   -2.8292 H         1 UNK         0.0949 
    101 H101       34.1395   25.5185   -0.8348 H         1 UNK         0.0767 
    102 H102       33.7989   27.0608   -1.6008 H         1 UNK         0.0767 
    103 H103       32.9471   26.6095   -0.1311 H         1 UNK         0.0767 
    104 H104       31.8249   24.4229   -0.1784 H         1 UNK         0.3013 
    105 H105       28.0271   28.0017    5.5169 H         1 UNK         0.3121 
    106 H106       30.4376   29.2309    4.9188 H         1 UNK         0.0774 
    107 H107       30.4741   29.7061    7.3873 H         1 UNK         0.0815 
    108 H108       28.7605   29.3293    7.4848 H         1 UNK         0.0815 
    109 H109       29.9244   28.0778    7.0493 H         1 UNK         0.0815 
    110 H110       27.4135   30.8226    4.7612 H         1 UNK         0.2987 
    111 H111       28.2902   33.5369    5.2619 H         1 UNK         0.0949 
    112 H112       25.9329   32.4360    3.6292 H         1 UNK         0.0806 
    113 H113       25.8841   32.8926    5.3332 H         1 UNK         0.0806 
    114 H114       26.1524   34.1148    4.1021 H         1 UNK         0.0806 
    115 H115       28.6158   31.2998    2.5866 H         1 UNK         0.3010 
    116 H116       29.9704   33.3999    0.9414 H         1 UNK         0.0829 
    117 H117       27.7734   33.0159   -0.0845 H         1 UNK         0.0813 
    118 H118       28.9968   32.2498   -1.0853 H         1 UNK         0.0813 
    119 H119       27.9900   31.2701   -0.0222 H         1 UNK         0.0813 
    120 H120       29.8277   30.0022    2.0094 H         1 UNK         0.3038 
    121 H121       32.0094   29.0814    0.3818 H         1 UNK         0.0769 
    122 H122       30.7597   27.9432    2.9466 H         1 UNK         0.0811 
    123 H123       31.8441   27.0676    1.8914 H         1 UNK         0.0811 
    124 H124       30.2633   27.5510    1.3044 H         1 UNK         0.0811 
    125 H125       34.0680   28.3117    1.1855 H         1 UNK         0.3204 
    126 H126       35.6259   30.2553    2.4252 H         1 UNK         0.0748 
    127 H127       36.5040   28.5808    0.8220 H         1 UNK         0.0771 
    128 H128       37.4268   28.5152    2.3125 H         1 UNK         0.0771 
    129 H129       36.2223   27.2787    1.9795 H         1 UNK         0.0771 
    130 H130       33.8332   27.7079    3.9982 H         1 UNK         0.2980 
    131 H131       35.2126   27.8357    6.5362 H         1 UNK         0.0545 
    132 H132       32.6256   30.9249    6.5452 H         1 UNK         0.3459 
    133 H133       33.0956   30.1603    5.0518 H         1 UNK         0.3459 
    134 H134       33.2850   26.4703    7.3696 H         1 UNK         0.0616 
    135 H135       34.1120   25.7675    6.0092 H         1 UNK         0.0616 
    136 H136       31.7094   24.3060    6.3997 H         1 UNK         0.0634 
    137 H137       30.8876   25.5341    7.3406 H         1 UNK         0.0634 
@<TRIPOS>BOND
     1    1    2 1    
     2    1   72 1    
     3    1   73 1    
     4    1   74 1    
     5    2    3 2    
     6    2    4 am   BACKBONE|DICT|INTERRES
     7    4    5 1    
     8    4   75 1    
     9    5    6 1    
    10    5   35 1    
    11    5   76 1    
    12    6    7 1    
    13    6   77 1    
    14    6   78 1    
    15    7    8 1    
    16    8    9 1    
    17    8   79 1    
    18    8   80 1    
    19    9   10 ar   
    20    9   14 ar   
    21   10   11 ar   
    22   10   81 1    
    23   11   12 ar   
    24   11   71 1    
    25   12   13 ar   
    26   12   82 1    
    27   13   14 ar   
    28   13   15 1    
    29   14   83 1    
    30   15   16 1    
    31   15   84 1    
    32   15   85 1    
    33   16   17 1    
    34   17   18 1    
    35   17   86 1    
    36   17   87 1    
    37   18   19 1    
    38   18   37 1    
    39   18   88 1    
    40   19   20 am   BACKBONE|DICT|INTERRES
    41   19   89 1    
    42   20   21 2    
    43   20   22 1    
    44   22   23 1    
    45   22   24 1    
    46   22   90 1    
    47   23   91 1    
    48   23   92 1    
    49   23   93 1    
    50   24   25 am   BACKBONE|DICT|INTERRES
    51   24   94 1    
    52   25   26 2    
    53   25   27 1    
    54   27   28 1    
    55   27   29 1    
    56   27   95 1    
    57   28   96 1    
    58   28   97 1    
    59   28   98 1    
    60   29   30 am   BACKBONE|DICT|INTERRES
    61   29   99 1    
    62   30   31 2    
    63   30   32 1    
    64   32   33 1    
    65   32   34 1    
    66   32  100 1    
    67   33  101 1    
    68   33  102 1    
    69   33  103 1    
    70   34   35 am   BACKBONE|DICT|INTERRES
    71   34  104 1    
    72   35   36 2    
    73   37   38 2    
    74   37   39 am   BACKBONE|DICT|INTERRES
    75   39   40 1    
    76   39  105 1    
    77   40   41 1    
    78   40   42 1    
    79   40  106 1    
    80   41  107 1    
    81   41  108 1    
    82   41  109 1    
    83   42   43 2    
    84   42   44 am   BACKBONE|DICT|INTERRES
    85   44   45 1    
    86   44  110 1    
    87   45   46 1    
    88   45   47 1    
    89   45  111 1    
    90   46  112 1    
    91   46  113 1    
    92   46  114 1    
    93   47   48 2    
    94   47   49 am   BACKBONE|DICT|INTERRES
    95   49   50 1    
    96   49  115 1    
    97   50   51 1    
    98   50   52 1    
    99   50  116 1    
   100   51  117 1    
   101   51  118 1    
   102   51  119 1    
   103   52   53 2    
   104   52   54 am   BACKBONE|DICT|INTERRES
   105   54   55 1    
   106   54  120 1    
   107   55   56 1    
   108   55   57 1    
   109   55  121 1    
   110   56  122 1    
   111   56  123 1    
   112   56  124 1    
   113   57   58 2    
   114   57   59 am   BACKBONE|DICT|INTERRES
   115   59   60 1    
   116   59  125 1    
   117   60   61 1    
   118   60   62 1    
   119   60  126 1    
   120   61  127 1    
   121   61  128 1    
   122   61  129 1    
   123   62   63 2    
   124   62   64 am   BACKBONE|DICT|INTERRES
   125   64   65 1    
   126   64  130 1    
   127   65   66 1    
   128   65   69 1    
   129   65  131 1    
   130   66   67 am   BACKBONE|DICT|INTERRES
   131   66   68 2    
   132   67  132 1    
   133   67  133 1    
   134   69   70 1    
   135   69  134 1    
   136   69  135 1    
   137   70   71 1    
   138   71  136 1    
   139   71  137 1    
@<TRIPOS>SUBSTRUCTURE
     1 UNK         1 GROUP             0       ****    0 ROOT    
