@<TRIPOS>MOLECULE
3R136
137   139    1
SMALL
USER_CHARGES


@<TRIPOS>ATOM
      1 CA         29.9784   23.4136    1.0593 C.3       0 UNK        -0.1979 
      2 C          28.7964   24.3645    1.1575 C.2       0 UNK         0.4864 
      3 O          28.0679   24.5346    0.1782 O.2       0 UNK        -0.5359 
      4 N          28.6157   24.9965    2.3239 N.am      1 UNK        -0.4318 
      5 CA         27.5600   25.9610    2.6576 C.3       1 UNK         0.0824 
      6 C6         27.6367   26.4842    4.1254 C.3       12 UNK        -0.0944 
      7 S7         28.5337   25.4094    5.3040 S.3       12 UNK        -0.2672 
      8 C8         30.0508   26.3766    5.5886 C.3       12 UNK         0.0333 
      9 C9         30.9685   26.4200    4.3701 C.ar      12 UNK        -0.0807 
     10 C10        31.9337   25.4301    4.1816 C.ar      12 UNK        -0.0894 
     11 C11        32.8349   25.5102    3.1156 C.ar      12 UNK        -0.0804 
     12 C12        32.7603   26.5832    2.2216 C.ar      12 UNK        -0.0824 
     13 C13        31.7846   27.5722    2.3851 C.ar      12 UNK        -0.0762 
     14 C14        30.8997   27.4823    3.4642 C.ar      12 UNK        -0.0782 
     15 C15        31.6963   28.7595    1.4277 C.3       12 UNK         0.0230 
     16 S16        31.5985   28.2906   -0.3323 S.3       12 UNK        -0.2608 
     17 C17        30.1273   27.2177   -0.3732 C.3       12 UNK        -0.0989 
     18 CA         28.9981   27.7467   -1.3025 C.3       5 UNK         0.0716 
     19 N          28.3043   26.6600   -1.9865 N.am      5 UNK        -0.4135 
     20 C          28.7707   25.9831   -3.0414 C.2       4 UNK         0.5031 
     21 O          29.8332   26.2576   -3.6022 O.2       4 UNK        -0.5229 
     22 CA         27.9296   24.7966   -3.5482 C.3       4 UNK         0.0329 
     23 CB         28.7894   23.7211   -4.2464 C.3       4 UNK        -0.2001 
     24 N          27.1498   24.1902   -2.4663 N.am      4 UNK        -0.4303 
     25 C          26.0315   23.4710   -2.6307 C.2       3 UNK         0.5044 
     26 O          25.5069   23.2528   -3.7235 O.2       3 UNK        -0.5152 
     27 CA         25.3761   22.9178   -1.3581 C.3       3 UNK         0.0319 
     28 CB         26.2003   21.7599   -0.7691 C.3       3 UNK        -0.2001 
     29 N          25.2306   23.9802   -0.3634 N.am      3 UNK        -0.4354 
     30 C          24.1096   24.6873   -0.1624 C.2       2 UNK         0.4964 
     31 O          23.0503   24.4531   -0.7463 O.2       2 UNK        -0.5047 
     32 CA         24.1582   25.8802    0.8144 C.3       2 UNK         0.0288 
     33 CB         23.0662   25.7855    1.9015 C.3       2 UNK        -0.2113 
     34 N          25.4793   26.1496    1.3953 N.am      2 UNK        -0.4145 
     35 C          26.1529   25.4359    2.3096 C.2       1 UNK         0.5006 
     36 O          25.7337   24.4081    2.8459 O.2       1 UNK        -0.5103 
     37 C          27.9502   28.5578   -0.5240 C.2       5 UNK         0.5055 
     38 O          26.8828   28.0272   -0.1957 O.2       5 UNK        -0.5220 
     39 N          28.2861   29.8155   -0.2182 N.am      6 UNK        -0.4450 
     40 CA         27.5102   30.7056    0.6503 C.3       6 UNK         0.0367 
     41 CB         27.9949   32.1488    0.4206 C.3       6 UNK        -0.1929 
     42 C          27.6488   30.3130    2.1333 C.2       6 UNK         0.5070 
     43 O          28.4401   29.4355    2.4691 O.2       6 UNK        -0.5237 
     44 N          26.9278   31.0077    3.0203 N.am      7 UNK        -0.4739 
     45 CA         26.9852   30.8153    4.4785 C.3       7 UNK         0.0276 
     46 CB         25.6970   31.3866    5.0973 C.3       7 UNK        -0.1927 
     47 C          28.2420   31.4120    5.1575 C.2       7 UNK         0.5013 
     48 O          28.3036   31.4435    6.3867 O.2       7 UNK        -0.5193 
     49 N          29.2064   31.8965    4.3623 N.am      8 UNK        -0.4253 
     50 CA         30.4054   32.6235    4.7926 C.3       8 UNK         0.0242 
     51 CB         31.0691   33.2459    3.5516 C.3       8 UNK        -0.2000 
     52 C          31.4394   31.7998    5.5848 C.2       8 UNK         0.4948 
     53 O          32.2716   32.4031    6.2631 O.2       8 UNK        -0.5275 
     54 N          31.3972   30.4624    5.4663 N.am      9 UNK        -0.4246 
     55 CA         32.3221   29.4929    6.0825 C.3       9 UNK         0.0261 
     56 CB         32.1729   29.4856    7.6187 C.3       9 UNK        -0.1959 
     57 C          33.7852   29.6587    5.6194 C.2       9 UNK         0.5033 
     58 O          34.7118   29.4443    6.4042 O.2       9 UNK        -0.5390 
     59 N          33.9643   30.0422    4.3463 N.am      10 UNK        -0.4215 
     60 CA         35.2404   30.4510    3.7498 C.3       10 UNK         0.0240 
     61 CB         35.0005   30.9662    2.3211 C.3       10 UNK        -0.1982 
     62 C          36.3472   29.3823    3.7514 C.2       10 UNK         0.4970 
     63 O          37.5206   29.7580    3.7527 O.2       10 UNK        -0.4916 
     64 N          35.9793   28.0921    3.7540 N.am      11 UNK        -0.4279 
     65 CA         36.9388   26.9821    3.8701 C.3       11 UNK         0.1003 
     66 C          37.4987   26.7534    5.3079 C.2       11 UNK         0.5709 
     67 N          36.9917   27.4198    6.3405 N.am      11 UNK        -0.7358 
     68 O          38.4280   25.9689    5.4851 O.2       11 UNK        -0.4999 
     69 C69        36.4362   25.6870    3.1720 C.3       12 UNK        -0.0954 
     70 S70        35.2560   24.6700    4.1271 S.3       12 UNK        -0.2268 
     71 C71        33.8904   24.4320    2.9494 C.3       12 UNK         0.0203 
     72 H72        30.6274   23.7097    0.2357 H         1 UNK         0.0888 
     73 H73        30.5731   23.4082    1.9727 H         1 UNK         0.0888 
     74 H74        29.6285   22.3990    0.8720 H         1 UNK         0.0888 
     75 H75        29.2401   24.7998    3.0941 H         1 UNK         0.3017 
     76 H76        27.7497   26.8212    2.0147 H         1 UNK         0.0873 
     77 H77        26.6437   26.6682    4.5412 H         1 UNK         0.0745 
     78 H78        28.1036   27.4669    4.1323 H         1 UNK         0.0745 
     79 H79        30.5872   25.9388    6.4320 H         1 UNK         0.0705 
     80 H80        29.7809   27.3866    5.9013 H         1 UNK         0.0705 
     81 H81        32.0032   24.6080    4.8813 H         1 UNK         0.1334 
     82 H82        33.4577   26.6491    1.3976 H         1 UNK         0.1417 
     83 H83        30.1665   28.2559    3.6181 H         1 UNK         0.1562 
     84 H84        32.5753   29.3853    1.5661 H         1 UNK         0.0748 
     85 H85        30.8409   29.3911    1.6628 H         1 UNK         0.0748 
     86 H86        29.7620   27.0445    0.6392 H         1 UNK         0.0940 
     87 H87        30.4815   26.2445   -0.7159 H         1 UNK         0.0940 
     88 H88        29.4193   28.3986   -2.0712 H         1 UNK         0.0703 
     89 H89        27.4052   26.4290   -1.5842 H         1 UNK         0.3081 
     90 H90        27.2370   25.2127   -4.2826 H         1 UNK         0.0719 
     91 H91        29.3455   24.1418   -5.0851 H         1 UNK         0.0809 
     92 H92        29.5135   23.2826   -3.5588 H         1 UNK         0.0809 
     93 H93        28.1763   22.9137   -4.6465 H         1 UNK         0.0809 
     94 H94        27.5265   24.3031   -1.5243 H         1 UNK         0.2990 
     95 H95        24.3962   22.5192   -1.6297 H         1 UNK         0.0690 
     96 H96        25.7200   21.3469    0.1181 H         1 UNK         0.0788 
     97 H97        27.2067   22.0702   -0.4881 H         1 UNK         0.0788 
     98 H98        26.3003   20.9485   -1.4912 H         1 UNK         0.0788 
     99 H99        26.0756   24.2492    0.1298 H         1 UNK         0.2993 
    100 H100       23.9326   26.7581    0.2069 H         1 UNK         0.0949 
    101 H101       23.0948   26.6465    2.5693 H         1 UNK         0.0767 
    102 H102       22.0721   25.7577    1.4535 H         1 UNK         0.0767 
    103 H103       23.1697   24.8850    2.5072 H         1 UNK         0.0767 
    104 H104       25.9663   26.9339    0.9611 H         1 UNK         0.3013 
    105 H105       29.2019   30.1426   -0.4901 H         1 UNK         0.3121 
    106 H106       26.4553   30.6341    0.3766 H         1 UNK         0.0774 
    107 H107       27.4038   32.8663    0.9908 H         1 UNK         0.0815 
    108 H108       29.0376   32.2782    0.7139 H         1 UNK         0.0815 
    109 H109       27.9070   32.4318   -0.6287 H         1 UNK         0.0815 
    110 H110       26.3089   31.7335    2.6865 H         1 UNK         0.2987 
    111 H111       27.0046   29.7423    4.6817 H         1 UNK         0.0949 
    112 H112       25.6242   32.4652    4.9523 H         1 UNK         0.0806 
    113 H113       24.8094   30.9274    4.6616 H         1 UNK         0.0806 
    114 H114       25.6574   31.1991    6.1713 H         1 UNK         0.0806 
    115 H115       29.0653   31.8061    3.3675 H         1 UNK         0.3010 
    116 H116       30.0786   33.4341    5.4476 H         1 UNK         0.0829 
    117 H117       30.3904   33.9263    3.0367 H         1 UNK         0.0813 
    118 H118       31.9525   33.8239    3.8273 H         1 UNK         0.0813 
    119 H119       31.3883   32.4851    2.8381 H         1 UNK         0.0813 
    120 H120       30.6595   30.0774    4.8953 H         1 UNK         0.3038 
    121 H121       32.0240   28.5074    5.7364 H         1 UNK         0.0769 
    122 H122       32.7483   28.6727    8.0635 H         1 UNK         0.0811 
    123 H123       31.1335   29.3453    7.9152 H         1 UNK         0.0811 
    124 H124       32.5273   30.4149    8.0653 H         1 UNK         0.0811 
    125 H125       33.1404   30.1836    3.7833 H         1 UNK         0.3204 
    126 H126       35.6076   31.2870    4.3490 H         1 UNK         0.0748 
    127 H127       35.9079   31.4185    1.9180 H         1 UNK         0.0771 
    128 H128       34.7188   30.1616    1.6420 H         1 UNK         0.0771 
    129 H129       34.2224   31.7294    2.2913 H         1 UNK         0.0771 
    130 H130       35.0001   27.8506    3.7801 H         1 UNK         0.2980 
    131 H131       37.8161   27.2806    3.2925 H         1 UNK         0.0545 
    132 H132       36.2318   28.0805    6.2197 H         1 UNK         0.3459 
    133 H133       37.3733   27.2622    7.2592 H         1 UNK         0.3459 
    134 H134       36.0081   25.9381    2.2006 H         1 UNK         0.0616 
    135 H135       37.2913   25.0464    2.9502 H         1 UNK         0.0616 
    136 H136       34.2670   24.3993    1.9260 H         1 UNK         0.0634 
    137 H137       33.4380   23.4566    3.1347 H         1 UNK         0.0634 
@<TRIPOS>BOND
     1    1    2 1    
     2    1   72 1    
     3    1   73 1    
     4    1   74 1    
     5    2    3 2    
     6    2    4 am   BACKBONE|DICT|INTERRES
     7    4    5 1    
     8    4   75 1    
     9    5    6 1    
    10    5   35 1    
    11    5   76 1    
    12    6    7 1    
    13    6   77 1    
    14    6   78 1    
    15    7    8 1    
    16    8    9 1    
    17    8   79 1    
    18    8   80 1    
    19    9   10 ar   
    20    9   14 ar   
    21   10   11 ar   
    22   10   81 1    
    23   11   12 ar   
    24   11   71 1    
    25   12   13 ar   
    26   12   82 1    
    27   13   14 ar   
    28   13   15 1    
    29   14   83 1    
    30   15   16 1    
    31   15   84 1    
    32   15   85 1    
    33   16   17 1    
    34   17   18 1    
    35   17   86 1    
    36   17   87 1    
    37   18   19 1    
    38   18   37 1    
    39   18   88 1    
    40   19   20 am   BACKBONE|DICT|INTERRES
    41   19   89 1    
    42   20   21 2    
    43   20   22 1    
    44   22   23 1    
    45   22   24 1    
    46   22   90 1    
    47   23   91 1    
    48   23   92 1    
    49   23   93 1    
    50   24   25 am   BACKBONE|DICT|INTERRES
    51   24   94 1    
    52   25   26 2    
    53   25   27 1    
    54   27   28 1    
    55   27   29 1    
    56   27   95 1    
    57   28   96 1    
    58   28   97 1    
    59   28   98 1    
    60   29   30 am   BACKBONE|DICT|INTERRES
    61   29   99 1    
    62   30   31 2    
    63   30   32 1    
    64   32   33 1    
    65   32   34 1    
    66   32  100 1    
    67   33  101 1    
    68   33  102 1    
    69   33  103 1    
    70   34   35 am   BACKBONE|DICT|INTERRES
    71   34  104 1    
    72   35   36 2    
    73   37   38 2    
    74   37   39 am   BACKBONE|DICT|INTERRES
    75   39   40 1    
    76   39  105 1    
    77   40   41 1    
    78   40   42 1    
    79   40  106 1    
    80   41  107 1    
    81   41  108 1    
    82   41  109 1    
    83   42   43 2    
    84   42   44 am   BACKBONE|DICT|INTERRES
    85   44   45 1    
    86   44  110 1    
    87   45   46 1    
    88   45   47 1    
    89   45  111 1    
    90   46  112 1    
    91   46  113 1    
    92   46  114 1    
    93   47   48 2    
    94   47   49 am   BACKBONE|DICT|INTERRES
    95   49   50 1    
    96   49  115 1    
    97   50   51 1    
    98   50   52 1    
    99   50  116 1    
   100   51  117 1    
   101   51  118 1    
   102   51  119 1    
   103   52   53 2    
   104   52   54 am   BACKBONE|DICT|INTERRES
   105   54   55 1    
   106   54  120 1    
   107   55   56 1    
   108   55   57 1    
   109   55  121 1    
   110   56  122 1    
   111   56  123 1    
   112   56  124 1    
   113   57   58 2    
   114   57   59 am   BACKBONE|DICT|INTERRES
   115   59   60 1    
   116   59  125 1    
   117   60   61 1    
   118   60   62 1    
   119   60  126 1    
   120   61  127 1    
   121   61  128 1    
   122   61  129 1    
   123   62   63 2    
   124   62   64 am   BACKBONE|DICT|INTERRES
   125   64   65 1    
   126   64  130 1    
   127   65   66 1    
   128   65   69 1    
   129   65  131 1    
   130   66   67 am   BACKBONE|DICT|INTERRES
   131   66   68 2    
   132   67  132 1    
   133   67  133 1    
   134   69   70 1    
   135   69  134 1    
   136   69  135 1    
   137   70   71 1    
   138   71  136 1    
   139   71  137 1    
@<TRIPOS>SUBSTRUCTURE
     1 UNK         1 GROUP             0       ****    0 ROOT    
