@<TRIPOS>MOLECULE
3R136
137   139    1
SMALL
USER_CHARGES


@<TRIPOS>ATOM
      1 CA         24.5861   23.6383    4.7066 C.3       0 UNK        -0.1979 
      2 C          25.4878   23.5352    3.4859 C.2       0 UNK         0.4864 
      3 O          25.4357   24.4082    2.6178 O.2       0 UNK        -0.5359 
      4 N          26.3078   22.4748    3.4150 N.am      1 UNK        -0.4318 
      5 CA         27.2589   22.1797    2.3339 C.3       1 UNK         0.0824 
      6 C6         28.4581   23.1651    2.3077 C.3       12 UNK        -0.0944 
      7 S7         29.5458   22.9668    3.7538 S.3       12 UNK        -0.2672 
      8 C8         31.1110   22.4887    2.9530 C.3       12 UNK         0.0333 
      9 C9         31.7795   23.6701    2.2613 C.ar      12 UNK        -0.0807 
     10 C10        32.3627   24.6785    3.0322 C.ar      12 UNK        -0.0894 
     11 C11        33.0000   25.7611    2.4223 C.ar      12 UNK        -0.0804 
     12 C12        33.0665   25.8249    1.0284 C.ar      12 UNK        -0.0824 
     13 C13        32.4940   24.8192    0.2417 C.ar      12 UNK        -0.0762 
     14 C14        31.8427   23.7476    0.8646 C.ar      12 UNK        -0.0782 
     15 C15        32.6462   24.8586   -1.2746 C.3       12 UNK         0.0230 
     16 S16        31.9769   26.3801   -2.0251 S.3       12 UNK        -0.2608 
     17 C17        30.2175   25.9682   -2.2612 C.3       12 UNK        -0.0989 
     18 CA         29.2869   26.9280   -1.4794 C.3       5 UNK         0.0716 
     19 N          27.9760   27.0495   -2.1023 N.am      5 UNK        -0.4135 
     20 C          27.4959   28.1303   -2.7270 C.2       4 UNK         0.5031 
     21 O          28.1711   29.1200   -3.0118 O.2       4 UNK        -0.5229 
     22 CA         25.9958   28.1154   -3.0783 C.3       4 UNK         0.0329 
     23 CB         25.7908   27.7014   -4.5442 C.3       4 UNK        -0.2001 
     24 N          25.2197   27.2205   -2.2151 N.am      4 UNK        -0.4303 
     25 C          24.9497   27.4239   -0.9189 C.2       3 UNK         0.5044 
     26 O          25.2341   28.4595   -0.3174 O.2       3 UNK        -0.5152 
     27 CA         24.2905   26.2611   -0.1535 C.3       3 UNK         0.0319 
     28 CB         22.7966   26.1215   -0.5055 C.3       3 UNK        -0.2001 
     29 N          25.0098   24.9840   -0.2845 N.am      3 UNK        -0.4354 
     30 C          25.1928   24.2266   -1.3803 C.2       2 UNK         0.4964 
     31 O          24.6925   24.4880   -2.4755 O.2       2 UNK        -0.5047 
     32 CA         26.1254   23.0069   -1.2731 C.3       2 UNK         0.0288 
     33 CB         27.2044   23.0443   -2.3712 C.3       2 UNK        -0.2113 
     34 N          26.7921   22.9431    0.0277 N.am      2 UNK        -0.4145 
     35 C          26.5151   22.0483    0.9856 C.2       1 UNK         0.5006 
     36 O          25.6934   21.1380    0.8522 O.2       1 UNK        -0.5103 
     37 C          29.0046   26.4340   -0.0568 C.2       5 UNK         0.5055 
     38 O          28.3315   25.4099    0.0914 O.2       5 UNK        -0.5220 
     39 N          29.4750   27.1865    0.9402 N.am      6 UNK        -0.4450 
     40 CA         29.2736   26.9798    2.3700 C.3       6 UNK         0.0367 
     41 CB         27.7896   27.1774    2.7458 C.3       6 UNK        -0.1929 
     42 C          30.1534   27.9943    3.1090 C.2       6 UNK         0.5070 
     43 O          30.6566   28.9367    2.4900 O.2       6 UNK        -0.5237 
     44 N          30.3023   27.8221    4.4278 N.am      7 UNK        -0.4739 
     45 CA         31.1161   28.6669    5.3137 C.3       7 UNK         0.0276 
     46 CB         31.4632   27.8677    6.5842 C.3       7 UNK        -0.1927 
     47 C          30.4901   30.0419    5.6387 C.2       7 UNK         0.5013 
     48 O          30.6279   30.5237    6.7641 O.2       7 UNK        -0.5193 
     49 N          29.8443   30.6742    4.6493 N.am      8 UNK        -0.4253 
     50 CA         29.1968   31.9876    4.7535 C.3       8 UNK         0.0242 
     51 CB         28.4078   32.2687    3.4646 C.3       8 UNK        -0.2000 
     52 C          30.1818   33.1333    5.0493 C.2       8 UNK         0.4948 
     53 O          29.8249   34.0691    5.7652 O.2       8 UNK        -0.5275 
     54 N          31.4085   33.0123    4.5259 N.am      9 UNK        -0.4246 
     55 CA         32.5465   33.8924    4.8027 C.3       9 UNK         0.0261 
     56 CB         33.0895   34.4432    3.4702 C.3       9 UNK        -0.1959 
     57 C          33.6235   33.1401    5.6082 C.2       9 UNK         0.5033 
     58 O          34.8167   33.3366    5.3685 O.2       9 UNK        -0.5390 
     59 N          33.1896   32.2410    6.5086 N.am      10 UNK        -0.4215 
     60 CA         34.0055   31.3742    7.3756 C.3       10 UNK         0.0240 
     61 CB         34.7510   32.2179    8.4316 C.3       10 UNK        -0.1982 
     62 C          34.9539   30.4189    6.6173 C.2       10 UNK         0.4970 
     63 O          35.9157   29.9239    7.2067 O.2       10 UNK        -0.4916 
     64 N          34.6687   30.1813    5.3292 N.am      11 UNK        -0.4279 
     65 CA         35.5063   29.4393    4.3752 C.3       11 UNK         0.1003 
     66 C          36.8406   30.1562    3.9994 C.2       11 UNK         0.5709 
     67 N          36.9790   31.4573    4.2357 N.am      11 UNK        -0.7358 
     68 O          37.7540   29.5385    3.4575 O.2       11 UNK        -0.4999 
     69 C69        35.6724   27.9385    4.7705 C.3       12 UNK        -0.0954 
     70 S70        35.3987   26.7951    3.3762 S.3       12 UNK        -0.2268 
     71 C71        33.5858   26.8734    3.2738 C.3       12 UNK         0.0203 
     72 H72        23.5406   23.6433    4.3999 H         1 UNK         0.0888 
     73 H73        24.7348   22.8073    5.3958 H         1 UNK         0.0888 
     74 H74        24.7889   24.5648    5.2429 H         1 UNK         0.0888 
     75 H75        26.2791   21.7861    4.1535 H         1 UNK         0.3017 
     76 H76        27.6561   21.1836    2.5359 H         1 UNK         0.0873 
     77 H77        28.1045   24.1945    2.2991 H         1 UNK         0.0745 
     78 H78        29.0550   23.0338    1.4043 H         1 UNK         0.0745 
     79 H79        30.9309   21.6716    2.2526 H         1 UNK         0.0705 
     80 H80        31.7860   22.0932    3.7133 H         1 UNK         0.0705 
     81 H81        32.3109   24.6209    4.1111 H         1 UNK         0.1334 
     82 H82        33.5724   26.6553    0.5548 H         1 UNK         0.1417 
     83 H83        31.4060   22.9616    0.2636 H         1 UNK         0.1562 
     84 H84        32.1915   23.9847   -1.7435 H         1 UNK         0.0748 
     85 H85        33.7101   24.8033   -1.5093 H         1 UNK         0.0748 
     86 H86        30.0270   24.9213   -2.0172 H         1 UNK         0.0940 
     87 H87        30.0233   26.0569   -3.3314 H         1 UNK         0.0940 
     88 H88        29.7483   27.9169   -1.4237 H         1 UNK         0.0703 
     89 H89        27.3312   26.3111   -1.8596 H         1 UNK         0.3081 
     90 H90        25.6151   29.1306   -2.9484 H         1 UNK         0.0719 
     91 H91        26.3410   28.3608   -5.2171 H         1 UNK         0.0809 
     92 H92        26.1365   26.6833   -4.7287 H         1 UNK         0.0809 
     93 H93        24.7395   27.7551   -4.8278 H         1 UNK         0.0809 
     94 H94        24.9498   26.3183   -2.6019 H         1 UNK         0.2990 
     95 H95        24.3499   26.5139    0.9066 H         1 UNK         0.0690 
     96 H96        22.3230   25.3412    0.0902 H         1 UNK         0.0788 
     97 H97        22.6394   25.8815   -1.5573 H         1 UNK         0.0788 
     98 H98        22.2634   27.0514   -0.3041 H         1 UNK         0.0788 
     99 H99        25.4447   24.6734    0.5802 H         1 UNK         0.2993 
    100 H100       25.5062   22.1222   -1.4347 H         1 UNK         0.0949 
    101 H101       26.7566   23.0290   -3.3659 H         1 UNK         0.0767 
    102 H102       27.8181   23.9420   -2.3030 H         1 UNK         0.0767 
    103 H103       27.8665   22.1808   -2.3042 H         1 UNK         0.0767 
    104 H104       27.4426   23.7022    0.2238 H         1 UNK         0.3013 
    105 H105       30.0425   28.0030    0.7406 H         1 UNK         0.3121 
    106 H106       29.6065   25.9741    2.6307 H         1 UNK         0.0774 
    107 H107       27.1398   26.4818    2.2159 H         1 UNK         0.0815 
    108 H108       27.6249   27.0113    3.8107 H         1 UNK         0.0815 
    109 H109       27.4477   28.1868    2.5137 H         1 UNK         0.0815 
    110 H110       29.8209   27.0510    4.8691 H         1 UNK         0.2987 
    111 H111       32.0534   28.8858    4.8003 H         1 UNK         0.0949 
    112 H112       31.9307   26.9128    6.3447 H         1 UNK         0.0806 
    113 H113       32.1645   28.4151    7.2154 H         1 UNK         0.0806 
    114 H114       30.5756   27.6638    7.1843 H         1 UNK         0.0806 
    115 H115       29.8387   30.2217    3.7403 H         1 UNK         0.3010 
    116 H116       28.4903   31.9420    5.5851 H         1 UNK         0.0829 
    117 H117       27.6448   31.5091    3.2930 H         1 UNK         0.0813 
    118 H118       27.8976   33.2314    3.5214 H         1 UNK         0.0813 
    119 H119       29.0580   32.2949    2.5891 H         1 UNK         0.0813 
    120 H120       31.5914   32.2121    3.9369 H         1 UNK         0.3038 
    121 H121       32.2348   34.7405    5.4157 H         1 UNK         0.0769 
    122 H122       33.9020   35.1512    3.6396 H         1 UNK         0.0811 
    123 H123       32.3140   34.9717    2.9157 H         1 UNK         0.0811 
    124 H124       33.4763   33.6483    2.8313 H         1 UNK         0.0811 
    125 H125       32.1881   32.1210    6.6138 H         1 UNK         0.3204 
    126 H126       33.3008   30.7320    7.9060 H         1 UNK         0.0748 
    127 H127       35.2413   31.5823    9.1701 H         1 UNK         0.0771 
    128 H128       35.5212   32.8434    7.9789 H         1 UNK         0.0771 
    129 H129       34.0660   32.8695    8.9741 H         1 UNK         0.0771 
    130 H130       33.8845   30.6697    4.9281 H         1 UNK         0.2980 
    131 H131       34.9309   29.4836    3.4508 H         1 UNK         0.0545 
    132 H132       37.8407   31.9115    3.9789 H         1 UNK         0.3459 
    133 H133       36.2358   31.9972    4.6651 H         1 UNK         0.3459 
    134 H134       36.6588   27.7458    5.1960 H         1 UNK         0.0616 
    135 H135       34.9695   27.6612    5.5578 H         1 UNK         0.0616 
    136 H136       33.1725   26.8188    4.2802 H         1 UNK         0.0634 
    137 H137       33.2872   27.8389    2.8643 H         1 UNK         0.0634 
@<TRIPOS>BOND
     1    1    2 1    
     2    1   72 1    
     3    1   73 1    
     4    1   74 1    
     5    2    3 2    
     6    2    4 am   BACKBONE|DICT|INTERRES
     7    4    5 1    
     8    4   75 1    
     9    5    6 1    
    10    5   35 1    
    11    5   76 1    
    12    6    7 1    
    13    6   77 1    
    14    6   78 1    
    15    7    8 1    
    16    8    9 1    
    17    8   79 1    
    18    8   80 1    
    19    9   10 ar   
    20    9   14 ar   
    21   10   11 ar   
    22   10   81 1    
    23   11   12 ar   
    24   11   71 1    
    25   12   13 ar   
    26   12   82 1    
    27   13   14 ar   
    28   13   15 1    
    29   14   83 1    
    30   15   16 1    
    31   15   84 1    
    32   15   85 1    
    33   16   17 1    
    34   17   18 1    
    35   17   86 1    
    36   17   87 1    
    37   18   19 1    
    38   18   37 1    
    39   18   88 1    
    40   19   20 am   BACKBONE|DICT|INTERRES
    41   19   89 1    
    42   20   21 2    
    43   20   22 1    
    44   22   23 1    
    45   22   24 1    
    46   22   90 1    
    47   23   91 1    
    48   23   92 1    
    49   23   93 1    
    50   24   25 am   BACKBONE|DICT|INTERRES
    51   24   94 1    
    52   25   26 2    
    53   25   27 1    
    54   27   28 1    
    55   27   29 1    
    56   27   95 1    
    57   28   96 1    
    58   28   97 1    
    59   28   98 1    
    60   29   30 am   BACKBONE|DICT|INTERRES
    61   29   99 1    
    62   30   31 2    
    63   30   32 1    
    64   32   33 1    
    65   32   34 1    
    66   32  100 1    
    67   33  101 1    
    68   33  102 1    
    69   33  103 1    
    70   34   35 am   BACKBONE|DICT|INTERRES
    71   34  104 1    
    72   35   36 2    
    73   37   38 2    
    74   37   39 am   BACKBONE|DICT|INTERRES
    75   39   40 1    
    76   39  105 1    
    77   40   41 1    
    78   40   42 1    
    79   40  106 1    
    80   41  107 1    
    81   41  108 1    
    82   41  109 1    
    83   42   43 2    
    84   42   44 am   BACKBONE|DICT|INTERRES
    85   44   45 1    
    86   44  110 1    
    87   45   46 1    
    88   45   47 1    
    89   45  111 1    
    90   46  112 1    
    91   46  113 1    
    92   46  114 1    
    93   47   48 2    
    94   47   49 am   BACKBONE|DICT|INTERRES
    95   49   50 1    
    96   49  115 1    
    97   50   51 1    
    98   50   52 1    
    99   50  116 1    
   100   51  117 1    
   101   51  118 1    
   102   51  119 1    
   103   52   53 2    
   104   52   54 am   BACKBONE|DICT|INTERRES
   105   54   55 1    
   106   54  120 1    
   107   55   56 1    
   108   55   57 1    
   109   55  121 1    
   110   56  122 1    
   111   56  123 1    
   112   56  124 1    
   113   57   58 2    
   114   57   59 am   BACKBONE|DICT|INTERRES
   115   59   60 1    
   116   59  125 1    
   117   60   61 1    
   118   60   62 1    
   119   60  126 1    
   120   61  127 1    
   121   61  128 1    
   122   61  129 1    
   123   62   63 2    
   124   62   64 am   BACKBONE|DICT|INTERRES
   125   64   65 1    
   126   64  130 1    
   127   65   66 1    
   128   65   69 1    
   129   65  131 1    
   130   66   67 am   BACKBONE|DICT|INTERRES
   131   66   68 2    
   132   67  132 1    
   133   67  133 1    
   134   69   70 1    
   135   69  134 1    
   136   69  135 1    
   137   70   71 1    
   138   71  136 1    
   139   71  137 1    
@<TRIPOS>SUBSTRUCTURE
     1 UNK         1 GROUP             0       ****    0 ROOT    
