@<TRIPOS>MOLECULE
3R136
137   139    1
SMALL
USER_CHARGES


@<TRIPOS>ATOM
      1 CA         27.5407   19.0562    3.7118 C.3       0 UNK        -0.1979 
      2 C          28.3793   20.0341    2.9021 C.2       0 UNK         0.4864 
      3 O          29.3400   20.5867    3.4370 O.2       0 UNK        -0.5359 
      4 N          27.9996   20.2514    1.6334 N.am      1 UNK        -0.4318 
      5 CA         28.5941   21.0998    0.5841 C.3       1 UNK         0.0824 
      6 C6         29.9055   20.5392   -0.0403 C.3       12 UNK        -0.0944 
      7 S7         31.4375   20.6931    0.9516 S.3       12 UNK        -0.2672 
      8 C8         32.5660   21.5729   -0.1772 C.3       12 UNK         0.0333 
      9 C9         32.4229   23.0872   -0.0896 C.ar      12 UNK        -0.0807 
     10 C10        33.2709   23.8282    0.7397 C.ar      12 UNK        -0.0894 
     11 C11        33.1805   25.2227    0.7814 C.ar      12 UNK        -0.0804 
     12 C12        32.2369   25.8739   -0.0141 C.ar      12 UNK        -0.0824 
     13 C13        31.3440   25.1469   -0.8133 C.ar      12 UNK        -0.0762 
     14 C14        31.4623   23.7537   -0.8556 C.ar      12 UNK        -0.0782 
     15 C15        30.2010   25.7943   -1.6009 C.3       12 UNK         0.0230 
     16 S16        30.3647   27.5724   -1.9859 S.3       12 UNK        -0.2608 
     17 C17        30.0177   28.3513   -0.3728 C.3       12 UNK        -0.0989 
     18 CA         28.5669   28.8641   -0.1906 C.3       5 UNK         0.0716 
     19 N          27.6130   27.7578   -0.2292 N.am      5 UNK        -0.4135 
     20 C          26.6677   27.5458   -1.1522 C.2       4 UNK         0.5031 
     21 O          26.4461   28.3096   -2.0924 O.2       4 UNK        -0.5229 
     22 CA         25.8188   26.2642   -1.0137 C.3       4 UNK         0.0329 
     23 CB         26.1858   25.2464   -2.1064 C.3       4 UNK        -0.2001 
     24 N          25.9403   25.6228    0.3001 N.am      4 UNK        -0.4303 
     25 C          25.3823   26.1019    1.4226 C.2       3 UNK         0.5044 
     26 O          24.6398   27.0836    1.4424 O.2       3 UNK        -0.5152 
     27 CA         25.7333   25.4072    2.7532 C.3       3 UNK         0.0319 
     28 CB         24.6264   24.4164    3.1470 C.3       3 UNK        -0.2001 
     29 N          27.0248   24.7113    2.7666 N.am      3 UNK        -0.4354 
     30 C          28.2187   25.2660    2.5080 C.2       2 UNK         0.4964 
     31 O          28.3720   26.4434    2.1913 O.2       2 UNK        -0.5047 
     32 CA         29.4403   24.3355    2.5433 C.3       2 UNK         0.0288 
     33 CB         30.0320   24.2708    3.9599 C.3       2 UNK        -0.2113 
     34 N          29.1769   22.9725    2.0763 N.am      2 UNK        -0.4145 
     35 C          28.6581   22.6107    0.8966 C.2       1 UNK         0.5006 
     36 O          28.2194   23.4118    0.0686 O.2       1 UNK        -0.5103 
     37 C          28.4325   29.6013    1.1590 C.2       5 UNK         0.5055 
     38 O          29.4406   30.0689    1.6861 O.2       5 UNK        -0.5220 
     39 N          27.2149   29.6817    1.7195 N.am      6 UNK        -0.4450 
     40 CA         26.9412   30.1408    3.0902 C.3       6 UNK         0.0367 
     41 CB         25.4242   30.1273    3.3367 C.3       6 UNK        -0.1929 
     42 C          27.5318   31.5127    3.4760 C.2       6 UNK         0.5070 
     43 O          27.8805   31.7089    4.6404 O.2       6 UNK        -0.5237 
     44 N          27.6463   32.4225    2.5000 N.am      7 UNK        -0.4739 
     45 CA         28.2061   33.7661    2.6663 C.3       7 UNK         0.0276 
     46 CB         27.5451   34.6973    1.6348 C.3       7 UNK        -0.1927 
     47 C          29.7434   33.8355    2.5473 C.2       7 UNK         0.5013 
     48 O          30.2992   34.9093    2.7878 O.2       7 UNK        -0.5193 
     49 N          30.4094   32.7405    2.1504 N.am      8 UNK        -0.4253 
     50 CA         31.8649   32.6788    1.9744 C.3       8 UNK         0.0242 
     51 CB         32.2164   31.4760    1.0809 C.3       8 UNK        -0.2000 
     52 C          32.6122   32.5820    3.3151 C.2       8 UNK         0.4948 
     53 O          32.0088   32.2850    4.3494 O.2       8 UNK        -0.5275 
     54 N          33.9344   32.7946    3.2666 N.am      9 UNK        -0.4246 
     55 CA         34.8446   32.6105    4.3995 C.3       9 UNK         0.0261 
     56 CB         36.2622   33.0472    3.9956 C.3       9 UNK        -0.1959 
     57 C          34.8409   31.1493    4.8808 C.2       9 UNK         0.5033 
     58 O          34.9993   30.2425    4.0590 O.2       9 UNK        -0.5390 
     59 N          34.6307   30.9581    6.1899 N.am      10 UNK        -0.4215 
     60 CA         34.4860   29.6917    6.9231 C.3       10 UNK         0.0240 
     61 CB         35.7542   28.8203    6.8192 C.3       10 UNK        -0.1982 
     62 C          33.2231   28.8851    6.5630 C.2       10 UNK         0.4970 
     63 O          32.5000   28.4763    7.4724 O.2       10 UNK        -0.4916 
     64 N          32.9859   28.6592    5.2667 N.am      11 UNK        -0.4279 
     65 CA         31.8505   27.8874    4.7395 C.3       11 UNK         0.1003 
     66 C          30.4792   28.6200    4.8099 C.2       11 UNK         0.5709 
     67 N          30.4230   29.9426    4.9044 N.am      11 UNK        -0.7358 
     68 O          29.4418   27.9649    4.8340 O.2       11 UNK        -0.4999 
     69 C69        32.1528   27.3212    3.3249 C.3       12 UNK        -0.0954 
     70 S70        33.4993   26.0862    3.3967 S.3       12 UNK        -0.2268 
     71 C71        34.1041   26.0316    1.6810 C.3       12 UNK         0.0203 
     72 H72        27.1196   19.5561    4.5837 H         1 UNK         0.0888 
     73 H73        26.7187   18.6400    3.1296 H         1 UNK         0.0888 
     74 H74        28.1613   18.2307    4.0592 H         1 UNK         0.0888 
     75 H75        27.1733   19.7605    1.3202 H         1 UNK         0.3017 
     76 H76        27.8533   21.0319   -0.2149 H         1 UNK         0.0873 
     77 H77        30.0640   21.0070   -1.0124 H         1 UNK         0.0745 
     78 H78        29.7701   19.4796   -0.2620 H         1 UNK         0.0745 
     79 H79        32.4115   21.2343   -1.2027 H         1 UNK         0.0705 
     80 H80        33.5887   21.2889    0.0754 H         1 UNK         0.0705 
     81 H81        34.0075   23.3215    1.3482 H         1 UNK         0.1334 
     82 H82        32.2080   26.9507    0.0175 H         1 UNK         0.1417 
     83 H83        30.7887   23.1833   -1.4798 H         1 UNK         0.1562 
     84 H84        29.2772   25.6406   -1.0441 H         1 UNK         0.0748 
     85 H85        30.0771   25.2676   -2.5483 H         1 UNK         0.0748 
     86 H86        30.7326   29.1702   -0.2769 H         1 UNK         0.0940 
     87 H87        30.2403   27.6571    0.4383 H         1 UNK         0.0940 
     88 H88        28.3465   29.5917   -0.9740 H         1 UNK         0.0703 
     89 H89        27.7072   27.1058    0.5462 H         1 UNK         0.3081 
     90 H90        24.7755   26.5522   -1.1601 H         1 UNK         0.0719 
     91 H91        26.0739   25.6819   -3.1003 H         1 UNK         0.0809 
     92 H92        27.2170   24.9055   -2.0153 H         1 UNK         0.0809 
     93 H93        25.5399   24.3693   -2.0637 H         1 UNK         0.0809 
     94 H94        26.5627   24.8243    0.3619 H         1 UNK         0.2990 
     95 H95        25.7826   26.1874    3.5156 H         1 UNK         0.0690 
     96 H96        24.8016   23.9971    4.1380 H         1 UNK         0.0788 
     97 H97        24.5542   23.5900    2.4387 H         1 UNK         0.0788 
     98 H98        23.6530   24.9086    3.1741 H         1 UNK         0.0788 
     99 H99        27.0056   23.7290    2.9981 H         1 UNK         0.2993 
    100 H100       30.1908   24.7651    1.8773 H         1 UNK         0.0949 
    101 H101       30.1817   25.2685    4.3726 H         1 UNK         0.0767 
    102 H102       29.3779   23.7311    4.6457 H         1 UNK         0.0767 
    103 H103       31.0021   23.7729    3.9573 H         1 UNK         0.0767 
    104 H104       29.4718   22.2095    2.6854 H         1 UNK         0.3013 
    105 H105       26.4375   29.2708    1.2223 H         1 UNK         0.3121 
    106 H106       27.3950   29.4055    3.7575 H         1 UNK         0.0774 
    107 H107       25.0116   29.1251    3.2225 H         1 UNK         0.0815 
    108 H108       25.1893   30.4558    4.3502 H         1 UNK         0.0815 
    109 H109       24.8980   30.7898    2.6486 H         1 UNK         0.0815 
    110 H110       27.3547   32.1610    1.5693 H         1 UNK         0.2987 
    111 H111       27.9506   34.1328    3.6632 H         1 UNK         0.0949 
    112 H112       26.4610   34.7114    1.7495 H         1 UNK         0.0806 
    113 H113       27.8928   35.7245    1.7531 H         1 UNK         0.0806 
    114 H114       27.7720   34.3928    0.6123 H         1 UNK         0.0806 
    115 H115       29.9065   31.8630    2.0374 H         1 UNK         0.3010 
    116 H116       32.1874   33.5914    1.4684 H         1 UNK         0.0829 
    117 H117       33.2733   31.4767    0.8124 H         1 UNK         0.0813 
    118 H118       32.0141   30.5298    1.5846 H         1 UNK         0.0813 
    119 H119       31.6480   31.4914    0.1509 H         1 UNK         0.0813 
    120 H120       34.3618   32.9982    2.3750 H         1 UNK         0.3038 
    121 H121       34.5016   33.2579    5.2094 H         1 UNK         0.0769 
    122 H122       36.9557   32.9392    4.8307 H         1 UNK         0.0811 
    123 H123       36.2850   34.0934    3.6901 H         1 UNK         0.0811 
    124 H124       36.6501   32.4467    3.1715 H         1 UNK         0.0811 
    125 H125       34.4780   31.7836    6.7536 H         1 UNK         0.3204 
    126 H126       34.3797   29.9771    7.9712 H         1 UNK         0.0748 
    127 H127       35.6706   27.9374    7.4543 H         1 UNK         0.0771 
    128 H128       35.9297   28.4685    5.8020 H         1 UNK         0.0771 
    129 H129       36.6393   29.3687    7.1415 H         1 UNK         0.0771 
    130 H130       33.6364   29.0502    4.5907 H         1 UNK         0.2980 
    131 H131       31.7313   27.0249    5.3988 H         1 UNK         0.0545 
    132 H132       29.5195   30.3928    4.9519 H         1 UNK         0.3459 
    133 H133       31.2502   30.5246    4.8442 H         1 UNK         0.3459 
    134 H134       31.2738   26.8387    2.8951 H         1 UNK         0.0616 
    135 H135       32.4257   28.1274    2.6419 H         1 UNK         0.0616 
    136 H136       34.2299   27.0475    1.3032 H         1 UNK         0.0634 
    137 H137       35.0977   25.5813    1.6768 H         1 UNK         0.0634 
@<TRIPOS>BOND
     1    1    2 1    
     2    1   72 1    
     3    1   73 1    
     4    1   74 1    
     5    2    3 2    
     6    2    4 am   BACKBONE|DICT|INTERRES
     7    4    5 1    
     8    4   75 1    
     9    5    6 1    
    10    5   35 1    
    11    5   76 1    
    12    6    7 1    
    13    6   77 1    
    14    6   78 1    
    15    7    8 1    
    16    8    9 1    
    17    8   79 1    
    18    8   80 1    
    19    9   10 ar   
    20    9   14 ar   
    21   10   11 ar   
    22   10   81 1    
    23   11   12 ar   
    24   11   71 1    
    25   12   13 ar   
    26   12   82 1    
    27   13   14 ar   
    28   13   15 1    
    29   14   83 1    
    30   15   16 1    
    31   15   84 1    
    32   15   85 1    
    33   16   17 1    
    34   17   18 1    
    35   17   86 1    
    36   17   87 1    
    37   18   19 1    
    38   18   37 1    
    39   18   88 1    
    40   19   20 am   BACKBONE|DICT|INTERRES
    41   19   89 1    
    42   20   21 2    
    43   20   22 1    
    44   22   23 1    
    45   22   24 1    
    46   22   90 1    
    47   23   91 1    
    48   23   92 1    
    49   23   93 1    
    50   24   25 am   BACKBONE|DICT|INTERRES
    51   24   94 1    
    52   25   26 2    
    53   25   27 1    
    54   27   28 1    
    55   27   29 1    
    56   27   95 1    
    57   28   96 1    
    58   28   97 1    
    59   28   98 1    
    60   29   30 am   BACKBONE|DICT|INTERRES
    61   29   99 1    
    62   30   31 2    
    63   30   32 1    
    64   32   33 1    
    65   32   34 1    
    66   32  100 1    
    67   33  101 1    
    68   33  102 1    
    69   33  103 1    
    70   34   35 am   BACKBONE|DICT|INTERRES
    71   34  104 1    
    72   35   36 2    
    73   37   38 2    
    74   37   39 am   BACKBONE|DICT|INTERRES
    75   39   40 1    
    76   39  105 1    
    77   40   41 1    
    78   40   42 1    
    79   40  106 1    
    80   41  107 1    
    81   41  108 1    
    82   41  109 1    
    83   42   43 2    
    84   42   44 am   BACKBONE|DICT|INTERRES
    85   44   45 1    
    86   44  110 1    
    87   45   46 1    
    88   45   47 1    
    89   45  111 1    
    90   46  112 1    
    91   46  113 1    
    92   46  114 1    
    93   47   48 2    
    94   47   49 am   BACKBONE|DICT|INTERRES
    95   49   50 1    
    96   49  115 1    
    97   50   51 1    
    98   50   52 1    
    99   50  116 1    
   100   51  117 1    
   101   51  118 1    
   102   51  119 1    
   103   52   53 2    
   104   52   54 am   BACKBONE|DICT|INTERRES
   105   54   55 1    
   106   54  120 1    
   107   55   56 1    
   108   55   57 1    
   109   55  121 1    
   110   56  122 1    
   111   56  123 1    
   112   56  124 1    
   113   57   58 2    
   114   57   59 am   BACKBONE|DICT|INTERRES
   115   59   60 1    
   116   59  125 1    
   117   60   61 1    
   118   60   62 1    
   119   60  126 1    
   120   61  127 1    
   121   61  128 1    
   122   61  129 1    
   123   62   63 2    
   124   62   64 am   BACKBONE|DICT|INTERRES
   125   64   65 1    
   126   64  130 1    
   127   65   66 1    
   128   65   69 1    
   129   65  131 1    
   130   66   67 am   BACKBONE|DICT|INTERRES
   131   66   68 2    
   132   67  132 1    
   133   67  133 1    
   134   69   70 1    
   135   69  134 1    
   136   69  135 1    
   137   70   71 1    
   138   71  136 1    
   139   71  137 1    
@<TRIPOS>SUBSTRUCTURE
     1 UNK         1 GROUP             0       ****    0 ROOT    
