@<TRIPOS>MOLECULE
3R136
137   139    1
SMALL
USER_CHARGES


@<TRIPOS>ATOM
      1 CA         26.9673   21.8832    3.5143 C.3       0 UNK        -0.1979 
      2 C          27.2664   21.1512    2.2156 C.2       0 UNK         0.4864 
      3 O          26.3463   20.6451    1.5723 O.2       0 UNK        -0.5359 
      4 N          28.5476   21.0871    1.8281 N.am      1 UNK        -0.4318 
      5 CA         29.0214   20.4338    0.6010 C.3       1 UNK         0.0824 
      6 C6         30.5432   20.1360    0.6630 C.3       12 UNK        -0.0944 
      7 S7         31.5871   21.6333    0.7700 S.3       12 UNK        -0.2672 
      8 C8         32.0723   21.6697    2.5252 C.3       12 UNK         0.0333 
      9 C9         32.0811   23.0996    3.0460 C.ar      12 UNK        -0.0807 
     10 C10        33.0092   24.0208    2.5483 C.ar      12 UNK        -0.0894 
     11 C11        33.0006   25.3466    2.9898 C.ar      12 UNK        -0.0804 
     12 C12        32.0586   25.7458    3.9397 C.ar      12 UNK        -0.0824 
     13 C13        31.1301   24.8368    4.4530 C.ar      12 UNK        -0.0762 
     14 C14        31.1538   23.5097    4.0105 C.ar      12 UNK        -0.0782 
     15 C15        30.1133   25.3019    5.4893 C.3       12 UNK         0.0230 
     16 S16        28.3843   24.9331    5.0364 S.3       12 UNK        -0.2608 
     17 C17        28.2374   25.5509    3.3221 C.3       12 UNK        -0.0989 
     18 CA         28.5822   27.0455    3.0970 C.3       5 UNK         0.0716 
     19 N          28.6866   27.3247    1.6630 N.am      5 UNK        -0.4135 
     20 C          29.1292   28.4734    1.1301 C.2       4 UNK         0.5031 
     21 O          29.5855   29.3970    1.7982 O.2       4 UNK        -0.5229 
     22 CA         29.0129   28.6490   -0.3976 C.3       4 UNK         0.0329 
     23 CB         30.3818   28.4423   -1.0660 C.3       4 UNK        -0.2001 
     24 N          28.0283   27.7703   -1.0387 N.am      4 UNK        -0.4303 
     25 C          26.7179   27.7200   -0.7537 C.2       3 UNK         0.5044 
     26 O          26.1671   28.4566    0.0637 O.2       3 UNK        -0.5152 
     27 CA         25.8918   26.6194   -1.4453 C.3       3 UNK         0.0319 
     28 CB         25.1782   27.1849   -2.6835 C.3       3 UNK        -0.2001 
     29 N          26.6592   25.4263   -1.8293 N.am      3 UNK        -0.4354 
     30 C          27.3668   24.6529   -0.9935 C.2       2 UNK         0.4964 
     31 O          27.5069   24.8849    0.2118 O.2       2 UNK        -0.5047 
     32 CA         28.0760   23.4501   -1.6237 C.3       2 UNK         0.0288 
     33 CB         29.3428   23.8927   -2.3804 C.3       2 UNK        -0.2113 
     34 N          28.4391   22.5243   -0.5592 N.am      2 UNK        -0.4145 
     35 C          28.6374   21.2065   -0.6830 C.2       1 UNK         0.5006 
     36 O          28.5335   20.5965   -1.7493 O.2       1 UNK        -0.5103 
     37 C          27.5961   27.9932    3.8225 C.2       5 UNK         0.5055 
     38 O          27.7896   28.2661    5.0085 O.2       5 UNK        -0.5220 
     39 N          26.5700   28.4945    3.1153 N.am      6 UNK        -0.4450 
     40 CA         25.6077   29.4575    3.6474 C.3       6 UNK         0.0367 
     41 CB         24.3561   29.4870    2.7546 C.3       6 UNK        -0.1929 
     42 C          26.2466   30.8513    3.7540 C.2       6 UNK         0.5070 
     43 O          26.5885   31.4434    2.7281 O.2       6 UNK        -0.5237 
     44 N          26.3876   31.3426    4.9925 N.am      7 UNK        -0.4739 
     45 CA         26.9338   32.6411    5.4156 C.3       7 UNK         0.0276 
     46 CB         26.1006   33.8149    4.8633 C.3       7 UNK        -0.1927 
     47 C          28.4328   32.8328    5.1230 C.2       7 UNK         0.5013 
     48 O          29.2000   33.0899    6.0510 O.2       7 UNK        -0.5193 
     49 N          28.8396   32.6854    3.8577 N.am      8 UNK        -0.4253 
     50 CA         30.2072   32.8692    3.3598 C.3       8 UNK         0.0242 
     51 CB         30.1378   33.2360    1.8654 C.3       8 UNK        -0.2000 
     52 C          31.1094   31.6442    3.6166 C.2       8 UNK         0.4948 
     53 O          31.9106   31.2848    2.7526 O.2       8 UNK        -0.5275 
     54 N          30.9829   31.0359    4.8047 N.am      9 UNK        -0.4246 
     55 CA         31.5352   29.7343    5.2032 C.3       9 UNK         0.0261 
     56 CB         30.9876   29.3720    6.5940 C.3       9 UNK        -0.1959 
     57 C          33.0702   29.5831    5.1608 C.2       9 UNK         0.5033 
     58 O          33.5624   28.4723    5.3568 O.2       9 UNK        -0.5390 
     59 N          33.8067   30.6685    4.8971 N.am      10 UNK        -0.4215 
     60 CA         35.2288   30.6312    4.5526 C.3       10 UNK         0.0240 
     61 CB         35.8239   32.0386    4.7235 C.3       10 UNK        -0.1982 
     62 C          35.4844   30.1083    3.1234 C.2       10 UNK         0.4970 
     63 O          36.5888   29.6324    2.8589 O.2       10 UNK        -0.4916 
     64 N          34.4850   30.2232    2.2334 N.am      11 UNK        -0.4279 
     65 CA         34.5344   29.8695    0.8029 C.3       11 UNK         0.1003 
     66 C          35.5401   30.7151   -0.0400 C.2       11 UNK         0.5709 
     67 N          35.9574   31.8907    0.4163 N.am      11 UNK        -0.7358 
     68 O          35.9260   30.3241   -1.1395 O.2       11 UNK        -0.4999 
     69 C69        34.6615   28.3383    0.5523 C.3       12 UNK        -0.0954 
     70 S70        33.2242   27.4033    1.1738 S.3       12 UNK        -0.2268 
     71 C71        33.9986   26.3520    2.4365 C.3       12 UNK         0.0203 
     72 H72        27.8751   22.0957    4.0777 H         1 UNK         0.0888 
     73 H73        26.4638   22.8269    3.3062 H         1 UNK         0.0888 
     74 H74        26.3151   21.2804    4.1455 H         1 UNK         0.0888 
     75 H75        29.2623   21.5309    2.3851 H         1 UNK         0.3017 
     76 H76        28.5112   19.4701    0.5350 H         1 UNK         0.0873 
     77 H77        30.8492   19.5780   -0.2241 H         1 UNK         0.0745 
     78 H78        30.7601   19.4754    1.5038 H         1 UNK         0.0745 
     79 H79        31.3970   21.0527    3.1193 H         1 UNK         0.0705 
     80 H80        33.0656   21.2317    2.6330 H         1 UNK         0.0705 
     81 H81        33.7252   23.7070    1.8009 H         1 UNK         0.1334 
     82 H82        32.0473   26.7725    4.2723 H         1 UNK         0.1417 
     83 H83        30.4375   22.8051    4.4098 H         1 UNK         0.1562 
     84 H84        30.2015   26.3745    5.6689 H         1 UNK         0.0748 
     85 H85        30.3355   24.8177    6.4409 H         1 UNK         0.0748 
     86 H86        27.2226   25.3442    2.9766 H         1 UNK         0.0940 
     87 H87        28.8840   24.9287    2.7009 H         1 UNK         0.0940 
     88 H88        29.5703   27.2411    3.5145 H         1 UNK         0.0703 
     89 H89        28.3261   26.6073    1.0431 H         1 UNK         0.3081 
     90 H90        28.6954   29.6784   -0.5762 H         1 UNK         0.0719 
     91 H91        30.7395   27.4190   -0.9439 H         1 UNK         0.0809 
     92 H92        30.3435   28.6629   -2.1328 H         1 UNK         0.0809 
     93 H93        31.1323   29.1019   -0.6271 H         1 UNK         0.0809 
     94 H94        28.3839   27.1188   -1.7225 H         1 UNK         0.2990 
     95 H95        25.1310   26.2969   -0.7314 H         1 UNK         0.0690 
     96 H96        24.5017   26.4514   -3.1226 H         1 UNK         0.0788 
     97 H97        25.8872   27.4932   -3.4530 H         1 UNK         0.0788 
     98 H98        24.5790   28.0589   -2.4236 H         1 UNK         0.0788 
     99 H99        26.6176   25.1665   -2.8048 H         1 UNK         0.2993 
    100 H100       27.3825   22.9579   -2.3091 H         1 UNK         0.0949 
    101 H101       29.1023   24.5856   -3.1875 H         1 UNK         0.0767 
    102 H102       30.0520   24.3916   -1.7180 H         1 UNK         0.0767 
    103 H103       29.8530   23.0408   -2.8305 H         1 UNK         0.0767 
    104 H104       28.4901   22.9487    0.3581 H         1 UNK         0.3013 
    105 H105       26.5136   28.3099    2.1190 H         1 UNK         0.3121 
    106 H106       25.2980   29.1244    4.6406 H         1 UNK         0.0774 
    107 H107       23.6046   30.1638    3.1629 H         1 UNK         0.0815 
    108 H108       24.5858   29.8297    1.7450 H         1 UNK         0.0815 
    109 H109       23.8985   28.5007    2.6773 H         1 UNK         0.0815 
    110 H110       26.1187   30.7358    5.7558 H         1 UNK         0.2987 
    111 H111       26.8305   32.6603    6.5021 H         1 UNK         0.0949 
    112 H112       26.1417   33.8747    3.7753 H         1 UNK         0.0806 
    113 H113       25.0536   33.7277    5.1534 H         1 UNK         0.0806 
    114 H114       26.4654   34.7666    5.2521 H         1 UNK         0.0806 
    115 H115       28.1424   32.3656    3.1878 H         1 UNK         0.3010 
    116 H116       30.6588   33.7109    3.8889 H         1 UNK         0.0829 
    117 H117       29.5143   34.1145    1.6989 H         1 UNK         0.0813 
    118 H118       31.1280   33.4640    1.4686 H         1 UNK         0.0813 
    119 H119       29.7292   32.4152    1.2736 H         1 UNK         0.0813 
    120 H120       30.3486   31.4722    5.4645 H         1 UNK         0.3038 
    121 H121       31.1421   29.0083    4.4889 H         1 UNK         0.0769 
    122 H122       31.3015   30.0933    7.3494 H         1 UNK         0.0811 
    123 H123       29.8978   29.3360    6.5936 H         1 UNK         0.0811 
    124 H124       31.3389   28.3901    6.9142 H         1 UNK         0.0811 
    125 H125       33.3187   31.5387    4.7426 H         1 UNK         0.3204 
    126 H126       35.7385   29.9585    5.2458 H         1 UNK         0.0748 
    127 H127       36.8904   32.0421    4.4930 H         1 UNK         0.0771 
    128 H128       35.3452   32.7644    4.0649 H         1 UNK         0.0771 
    129 H129       35.7153   32.3927    5.7490 H         1 UNK         0.0771 
    130 H130       33.5966   30.6209    2.5334 H         1 UNK         0.2980 
    131 H131       33.5613   30.1695    0.4126 H         1 UNK         0.0545 
    132 H132       36.5978   32.4358   -0.1388 H         1 UNK         0.3459 
    133 H133       35.6362   32.2368    1.3054 H         1 UNK         0.3459 
    134 H134       35.5845   27.9503    0.9847 H         1 UNK         0.0616 
    135 H135       34.7199   28.1263   -0.5164 H         1 UNK         0.0616 
    136 H136       34.8551   25.8345    2.0017 H         1 UNK         0.0634 
    137 H137       34.3875   26.9778    3.2407 H         1 UNK         0.0634 
@<TRIPOS>BOND
     1    1    2 1    
     2    1   72 1    
     3    1   73 1    
     4    1   74 1    
     5    2    3 2    
     6    2    4 am   BACKBONE|DICT|INTERRES
     7    4    5 1    
     8    4   75 1    
     9    5    6 1    
    10    5   35 1    
    11    5   76 1    
    12    6    7 1    
    13    6   77 1    
    14    6   78 1    
    15    7    8 1    
    16    8    9 1    
    17    8   79 1    
    18    8   80 1    
    19    9   10 ar   
    20    9   14 ar   
    21   10   11 ar   
    22   10   81 1    
    23   11   12 ar   
    24   11   71 1    
    25   12   13 ar   
    26   12   82 1    
    27   13   14 ar   
    28   13   15 1    
    29   14   83 1    
    30   15   16 1    
    31   15   84 1    
    32   15   85 1    
    33   16   17 1    
    34   17   18 1    
    35   17   86 1    
    36   17   87 1    
    37   18   19 1    
    38   18   37 1    
    39   18   88 1    
    40   19   20 am   BACKBONE|DICT|INTERRES
    41   19   89 1    
    42   20   21 2    
    43   20   22 1    
    44   22   23 1    
    45   22   24 1    
    46   22   90 1    
    47   23   91 1    
    48   23   92 1    
    49   23   93 1    
    50   24   25 am   BACKBONE|DICT|INTERRES
    51   24   94 1    
    52   25   26 2    
    53   25   27 1    
    54   27   28 1    
    55   27   29 1    
    56   27   95 1    
    57   28   96 1    
    58   28   97 1    
    59   28   98 1    
    60   29   30 am   BACKBONE|DICT|INTERRES
    61   29   99 1    
    62   30   31 2    
    63   30   32 1    
    64   32   33 1    
    65   32   34 1    
    66   32  100 1    
    67   33  101 1    
    68   33  102 1    
    69   33  103 1    
    70   34   35 am   BACKBONE|DICT|INTERRES
    71   34  104 1    
    72   35   36 2    
    73   37   38 2    
    74   37   39 am   BACKBONE|DICT|INTERRES
    75   39   40 1    
    76   39  105 1    
    77   40   41 1    
    78   40   42 1    
    79   40  106 1    
    80   41  107 1    
    81   41  108 1    
    82   41  109 1    
    83   42   43 2    
    84   42   44 am   BACKBONE|DICT|INTERRES
    85   44   45 1    
    86   44  110 1    
    87   45   46 1    
    88   45   47 1    
    89   45  111 1    
    90   46  112 1    
    91   46  113 1    
    92   46  114 1    
    93   47   48 2    
    94   47   49 am   BACKBONE|DICT|INTERRES
    95   49   50 1    
    96   49  115 1    
    97   50   51 1    
    98   50   52 1    
    99   50  116 1    
   100   51  117 1    
   101   51  118 1    
   102   51  119 1    
   103   52   53 2    
   104   52   54 am   BACKBONE|DICT|INTERRES
   105   54   55 1    
   106   54  120 1    
   107   55   56 1    
   108   55   57 1    
   109   55  121 1    
   110   56  122 1    
   111   56  123 1    
   112   56  124 1    
   113   57   58 2    
   114   57   59 am   BACKBONE|DICT|INTERRES
   115   59   60 1    
   116   59  125 1    
   117   60   61 1    
   118   60   62 1    
   119   60  126 1    
   120   61  127 1    
   121   61  128 1    
   122   61  129 1    
   123   62   63 2    
   124   62   64 am   BACKBONE|DICT|INTERRES
   125   64   65 1    
   126   64  130 1    
   127   65   66 1    
   128   65   69 1    
   129   65  131 1    
   130   66   67 am   BACKBONE|DICT|INTERRES
   131   66   68 2    
   132   67  132 1    
   133   67  133 1    
   134   69   70 1    
   135   69  134 1    
   136   69  135 1    
   137   70   71 1    
   138   71  136 1    
   139   71  137 1    
@<TRIPOS>SUBSTRUCTURE
     1 UNK         1 GROUP             0       ****    0 ROOT    
