@<TRIPOS>MOLECULE
3R136
137   139    1
SMALL
USER_CHARGES


@<TRIPOS>ATOM
      1 CA         29.4011   18.9476    3.5745 C.3       0 UNK        -0.1979 
      2 C          28.4756   19.1116    2.3777 C.2       0 UNK         0.4864 
      3 O          27.5000   18.3691    2.2524 O.2       0 UNK        -0.5359 
      4 N          28.7795   20.0723    1.4966 N.am      1 UNK        -0.4318 
      5 CA         27.9615   20.4357    0.3362 C.3       1 UNK         0.0824 
      6 C6         28.8379   21.0271   -0.8030 C.3       12 UNK        -0.0944 
      7 S7         29.5484   22.6693   -0.4386 S.3       12 UNK        -0.2672 
      8 C8         31.2995   22.2899   -0.1385 C.3       12 UNK         0.0333 
      9 C9         31.9956   23.5130    0.4353 C.ar      12 UNK        -0.0807 
     10 C10        32.2047   23.6258    1.8133 C.ar      12 UNK        -0.0894 
     11 C11        32.7827   24.7803    2.3502 C.ar      12 UNK        -0.0804 
     12 C12        33.1571   25.8230    1.4960 C.ar      12 UNK        -0.0824 
     13 C13        32.9617   25.7169    0.1166 C.ar      12 UNK        -0.0762 
     14 C14        32.3874   24.5561   -0.4090 C.ar      12 UNK        -0.0782 
     15 C15        33.3650   26.8536   -0.8097 C.3       12 UNK         0.0230 
     16 S16        31.9252   27.8153   -1.3730 S.3       12 UNK        -0.2608 
     17 C17        31.5737   28.8715    0.0742 C.3       12 UNK        -0.0989 
     18 CA         30.0559   28.9288    0.4043 C.3       5 UNK         0.0716 
     19 N          29.4959   27.6217    0.7725 N.am      5 UNK        -0.4135 
     20 C          29.7426   26.9151    1.8859 C.2       4 UNK         0.5031 
     21 O          30.5047   27.2842    2.7804 O.2       4 UNK        -0.5229 
     22 CA         28.9538   25.5984    2.0420 C.3       4 UNK         0.0329 
     23 CB         28.9023   25.1067    3.5031 C.3       4 UNK        -0.2001 
     24 N          27.5947   25.6418    1.4795 N.am      4 UNK        -0.4303 
     25 C          26.6230   26.5259    1.7533 C.2       3 UNK         0.5044 
     26 O          26.7850   27.5067    2.4796 O.2       3 UNK        -0.5152 
     27 CA         25.2347   26.3093    1.1161 C.3       3 UNK         0.0319 
     28 CB         25.0683   27.1846   -0.1421 C.3       3 UNK        -0.2001 
     29 N          24.8617   24.9077    0.8553 N.am      3 UNK        -0.4354 
     30 C          25.4012   24.0483   -0.0198 C.2       2 UNK         0.4964 
     31 O          26.3280   24.3323   -0.7809 O.2       2 UNK        -0.5047 
     32 CA         24.8148   22.6251   -0.0401 C.3       2 UNK         0.0288 
     33 CB         23.8083   22.4720   -1.1920 C.3       2 UNK        -0.2113 
     34 N          25.8739   21.6229   -0.1855 N.am      2 UNK        -0.4145 
     35 C          26.8004   21.3713    0.7503 C.2       1 UNK         0.5006 
     36 O          26.7731   21.8713    1.8800 O.2       1 UNK        -0.5103 
     37 C          29.7243   30.0632    1.4056 C.2       5 UNK         0.5055 
     38 O          30.3495   31.1221    1.3277 O.2       5 UNK        -0.5220 
     39 N          28.7358   29.8721    2.2972 N.am      6 UNK        -0.4450 
     40 CA         28.4105   30.7785    3.4077 C.3       6 UNK         0.0367 
     41 CB         27.3358   30.1330    4.2953 C.3       6 UNK        -0.1929 
     42 C          27.9895   32.2012    2.9981 C.2       6 UNK         0.5070 
     43 O          28.1106   33.1187    3.8098 O.2       6 UNK        -0.5237 
     44 N          27.5344   32.3711    1.7493 N.am      7 UNK        -0.4739 
     45 CA         27.2556   33.6707    1.1323 C.3       7 UNK         0.0276 
     46 CB         26.4918   33.4476   -0.1830 C.3       7 UNK        -0.1927 
     47 C          28.5215   34.5162    0.8838 C.2       7 UNK         0.5013 
     48 O          28.4124   35.7409    0.8098 O.2       7 UNK        -0.5193 
     49 N          29.6839   33.8603    0.7592 N.am      8 UNK        -0.4253 
     50 CA         30.9953   34.4890    0.6184 C.3       8 UNK         0.0242 
     51 CB         31.7764   33.8090   -0.5210 C.3       8 UNK        -0.2000 
     52 C          31.7537   34.4039    1.9495 C.2       8 UNK         0.4948 
     53 O          32.0798   35.4431    2.5244 O.2       8 UNK        -0.5275 
     54 N          31.9980   33.1752    2.4218 N.am      9 UNK        -0.4246 
     55 CA         32.6729   32.8446    3.6742 C.3       9 UNK         0.0261 
     56 CB         34.1563   33.2685    3.6482 C.3       9 UNK        -0.1959 
     57 C          32.5539   31.3320    3.8873 C.2       9 UNK         0.5033 
     58 O          32.9718   30.5661    3.0157 O.2       9 UNK        -0.5390 
     59 N          31.9971   30.9302    5.0351 N.am      10 UNK        -0.4215 
     60 CA         31.8729   29.5295    5.4427 C.3       10 UNK         0.0240 
     61 CB         30.7634   29.4160    6.5033 C.3       10 UNK        -0.1982 
     62 C          33.2021   28.9825    5.9921 C.2       10 UNK         0.4970 
     63 O          34.0728   29.7592    6.3935 O.2       10 UNK        -0.4916 
     64 N          33.3095   27.6498    6.0429 N.am      11 UNK        -0.4279 
     65 CA         34.4587   26.9201    6.6088 C.3       11 UNK         0.1003 
     66 C          34.5877   27.0103    8.1590 C.2       11 UNK         0.5709 
     67 N          33.5741   27.4589    8.8908 N.am      11 UNK        -0.7358 
     68 O          35.6337   26.6706    8.7073 O.2       11 UNK        -0.4999 
     69 C69        34.4837   25.4384    6.1458 C.3       12 UNK        -0.0954 
     70 S70        34.6652   25.2562    4.3409 S.3       12 UNK        -0.2268 
     71 C71        32.9424   24.9285    3.8563 C.3       12 UNK         0.0203 
     72 H72        28.8469   19.1001    4.5002 H         1 UNK         0.0888 
     73 H73        29.8210   17.9422    3.5895 H         1 UNK         0.0888 
     74 H74        30.2264   19.6592    3.5527 H         1 UNK         0.0888 
     75 H75        29.5578   20.6872    1.6808 H         1 UNK         0.3017 
     76 H76        27.5033   19.5228   -0.0513 H         1 UNK         0.0873 
     77 H77        28.2479   21.1217   -1.7161 H         1 UNK         0.0745 
     78 H78        29.6405   20.3315   -1.0538 H         1 UNK         0.0745 
     79 H79        31.3857   21.4444    0.5453 H         1 UNK         0.0705 
     80 H80        31.7747   21.9878   -1.0731 H         1 UNK         0.0705 
     81 H81        31.8894   22.8268    2.4703 H         1 UNK         0.1334 
     82 H82        33.5846   26.7248    1.9129 H         1 UNK         0.1417 
     83 H83        32.2165   24.4775   -1.4743 H         1 UNK         0.1562 
     84 H84        33.8731   26.4409   -1.6825 H         1 UNK         0.0748 
     85 H85        34.0843   27.5171   -0.3266 H         1 UNK         0.0748 
     86 H86        31.9636   29.8631   -0.1633 H         1 UNK         0.0940 
     87 H87        32.1382   28.5328    0.9444 H         1 UNK         0.0940 
     88 H88        29.5371   29.2169   -0.5111 H         1 UNK         0.0703 
     89 H89        28.8478   27.2260    0.1073 H         1 UNK         0.3081 
     90 H90        29.5029   24.8562    1.4646 H         1 UNK         0.0719 
     91 H91        28.4064   25.8288    4.1527 H         1 UNK         0.0809 
     92 H92        28.3690   24.1591    3.5816 H         1 UNK         0.0809 
     93 H93        29.9052   24.9449    3.8985 H         1 UNK         0.0809 
     94 H94        27.3739   24.9215    0.7983 H         1 UNK         0.2990 
     95 H95        24.5115   26.6642    1.8522 H         1 UNK         0.0690 
     96 H96        24.0634   27.0977   -0.5553 H         1 UNK         0.0788 
     97 H97        25.7776   26.9170   -0.9256 H         1 UNK         0.0788 
     98 H98        25.2309   28.2374    0.0933 H         1 UNK         0.0788 
     99 H99        24.1222   24.5577    1.4497 H         1 UNK         0.2993 
    100 H100       24.2974   22.4379    0.9036 H         1 UNK         0.0949 
    101 H101       23.3626   21.4771   -1.2010 H         1 UNK         0.0767 
    102 H102       22.9930   23.1906   -1.0960 H         1 UNK         0.0767 
    103 H103       24.2773   22.6398   -2.1628 H         1 UNK         0.0767 
    104 H104       25.9777   21.2089   -1.1002 H         1 UNK         0.3013 
    105 H105       28.2352   28.9888    2.2871 H         1 UNK         0.3121 
    106 H106       29.3191   30.8847    4.0017 H         1 UNK         0.0774 
    107 H107       27.1129   30.7589    5.1605 H         1 UNK         0.0815 
    108 H108       26.4029   29.9825    3.7507 H         1 UNK         0.0815 
    109 H109       27.6628   29.1638    4.6729 H         1 UNK         0.0815 
    110 H110       27.4575   31.5560    1.1585 H         1 UNK         0.2987 
    111 H111       26.6144   34.2373    1.8113 H         1 UNK         0.0949 
    112 H112       27.0804   32.8740   -0.9002 H         1 UNK         0.0806 
    113 H113       25.5549   32.9164   -0.0138 H         1 UNK         0.0806 
    114 H114       26.2417   34.3991   -0.6545 H         1 UNK         0.0806 
    115 H115       29.6889   32.8524    0.8921 H         1 UNK         0.3010 
    116 H116       30.8863   35.5454    0.3631 H         1 UNK         0.0829 
    117 H117       31.2712   33.9447   -1.4773 H         1 UNK         0.0813 
    118 H118       32.7747   34.2374   -0.6186 H         1 UNK         0.0813 
    119 H119       31.8947   32.7369   -0.3591 H         1 UNK         0.0813 
    120 H120       31.6383   32.3688    1.9120 H         1 UNK         0.3038 
    121 H121       32.1645   33.3682    4.4864 H         1 UNK         0.0769 
    122 H122       34.6704   32.9393    4.5523 H         1 UNK         0.0811 
    123 H123       34.2688   34.3510    3.5934 H         1 UNK         0.0811 
    124 H124       34.6822   32.8333    2.7975 H         1 UNK         0.0811 
    125 H125       31.7339   31.6234    5.7205 H         1 UNK         0.3204 
    126 H126       31.5865   28.9363    4.5714 H         1 UNK         0.0748 
    127 H127       30.5931   28.3765    6.7859 H         1 UNK         0.0771 
    128 H128       31.0143   29.9652    7.4119 H         1 UNK         0.0771 
    129 H129       29.8148   29.8021    6.1314 H         1 UNK         0.0771 
    130 H130       32.5452   27.0840    5.7080 H         1 UNK         0.2980 
    131 H131       35.3597   27.3960    6.2165 H         1 UNK         0.0545 
    132 H132       32.7120   27.7419    8.4557 H         1 UNK         0.3459 
    133 H133       33.6770   27.5143    9.8919 H         1 UNK         0.3459 
    134 H134       33.5888   24.9130    6.4842 H         1 UNK         0.0616 
    135 H135       35.3277   24.9129    6.5967 H         1 UNK         0.0616 
    136 H136       32.3082   25.7484    4.1926 H         1 UNK         0.0634 
    137 H137       32.5950   24.0318    4.3720 H         1 UNK         0.0634 
@<TRIPOS>BOND
     1    1    2 1    
     2    1   72 1    
     3    1   73 1    
     4    1   74 1    
     5    2    3 2    
     6    2    4 am   BACKBONE|DICT|INTERRES
     7    4    5 1    
     8    4   75 1    
     9    5    6 1    
    10    5   35 1    
    11    5   76 1    
    12    6    7 1    
    13    6   77 1    
    14    6   78 1    
    15    7    8 1    
    16    8    9 1    
    17    8   79 1    
    18    8   80 1    
    19    9   10 ar   
    20    9   14 ar   
    21   10   11 ar   
    22   10   81 1    
    23   11   12 ar   
    24   11   71 1    
    25   12   13 ar   
    26   12   82 1    
    27   13   14 ar   
    28   13   15 1    
    29   14   83 1    
    30   15   16 1    
    31   15   84 1    
    32   15   85 1    
    33   16   17 1    
    34   17   18 1    
    35   17   86 1    
    36   17   87 1    
    37   18   19 1    
    38   18   37 1    
    39   18   88 1    
    40   19   20 am   BACKBONE|DICT|INTERRES
    41   19   89 1    
    42   20   21 2    
    43   20   22 1    
    44   22   23 1    
    45   22   24 1    
    46   22   90 1    
    47   23   91 1    
    48   23   92 1    
    49   23   93 1    
    50   24   25 am   BACKBONE|DICT|INTERRES
    51   24   94 1    
    52   25   26 2    
    53   25   27 1    
    54   27   28 1    
    55   27   29 1    
    56   27   95 1    
    57   28   96 1    
    58   28   97 1    
    59   28   98 1    
    60   29   30 am   BACKBONE|DICT|INTERRES
    61   29   99 1    
    62   30   31 2    
    63   30   32 1    
    64   32   33 1    
    65   32   34 1    
    66   32  100 1    
    67   33  101 1    
    68   33  102 1    
    69   33  103 1    
    70   34   35 am   BACKBONE|DICT|INTERRES
    71   34  104 1    
    72   35   36 2    
    73   37   38 2    
    74   37   39 am   BACKBONE|DICT|INTERRES
    75   39   40 1    
    76   39  105 1    
    77   40   41 1    
    78   40   42 1    
    79   40  106 1    
    80   41  107 1    
    81   41  108 1    
    82   41  109 1    
    83   42   43 2    
    84   42   44 am   BACKBONE|DICT|INTERRES
    85   44   45 1    
    86   44  110 1    
    87   45   46 1    
    88   45   47 1    
    89   45  111 1    
    90   46  112 1    
    91   46  113 1    
    92   46  114 1    
    93   47   48 2    
    94   47   49 am   BACKBONE|DICT|INTERRES
    95   49   50 1    
    96   49  115 1    
    97   50   51 1    
    98   50   52 1    
    99   50  116 1    
   100   51  117 1    
   101   51  118 1    
   102   51  119 1    
   103   52   53 2    
   104   52   54 am   BACKBONE|DICT|INTERRES
   105   54   55 1    
   106   54  120 1    
   107   55   56 1    
   108   55   57 1    
   109   55  121 1    
   110   56  122 1    
   111   56  123 1    
   112   56  124 1    
   113   57   58 2    
   114   57   59 am   BACKBONE|DICT|INTERRES
   115   59   60 1    
   116   59  125 1    
   117   60   61 1    
   118   60   62 1    
   119   60  126 1    
   120   61  127 1    
   121   61  128 1    
   122   61  129 1    
   123   62   63 2    
   124   62   64 am   BACKBONE|DICT|INTERRES
   125   64   65 1    
   126   64  130 1    
   127   65   66 1    
   128   65   69 1    
   129   65  131 1    
   130   66   67 am   BACKBONE|DICT|INTERRES
   131   66   68 2    
   132   67  132 1    
   133   67  133 1    
   134   69   70 1    
   135   69  134 1    
   136   69  135 1    
   137   70   71 1    
   138   71  136 1    
   139   71  137 1    
@<TRIPOS>SUBSTRUCTURE
     1 UNK         1 GROUP             0       ****    0 ROOT    
