@<TRIPOS>MOLECULE
3R136
137   139    1
SMALL
USER_CHARGES


@<TRIPOS>ATOM
      1 CA         28.4657   19.1968   -3.7420 C.3       0 UNK        -0.1979 
      2 C          28.8902   20.4784   -3.0400 C.2       0 UNK         0.4864 
      3 O          29.5404   21.3237   -3.6561 O.2       0 UNK        -0.5359 
      4 N          28.5329   20.6224   -1.7560 N.am      1 UNK        -0.4318 
      5 CA         28.8200   21.7968   -0.9249 C.3       1 UNK         0.0824 
      6 C6         28.5324   21.4966    0.5718 C.3       12 UNK        -0.0944 
      7 S7         28.8882   22.8931    1.6933 S.3       12 UNK        -0.2672 
      8 C8         30.2524   22.2350    2.6952 C.3       12 UNK         0.0333 
      9 C9         30.8568   23.3357    3.5512 C.ar      12 UNK        -0.0807 
     10 C10        32.1273   23.8397    3.2572 C.ar      12 UNK        -0.0894 
     11 C11        32.6699   24.8786    4.0185 C.ar      12 UNK        -0.0804 
     12 C12        31.9391   25.3993    5.0910 C.ar      12 UNK        -0.0824 
     13 C13        30.6674   24.9040    5.3950 C.ar      12 UNK        -0.0762 
     14 C14        30.1339   23.8679    4.6237 C.ar      12 UNK        -0.0782 
     15 C15        29.8717   25.4739    6.5617 C.3       12 UNK         0.0230 
     16 S16        28.6958   26.7628    6.0316 S.3       12 UNK        -0.2608 
     17 C17        29.8074   28.1857    5.7388 C.3       12 UNK        -0.0989 
     18 CA         29.5937   28.8975    4.3770 C.3       5 UNK         0.0716 
     19 N          29.5015   27.9471    3.2625 N.am      5 UNK        -0.4135 
     20 C          29.6726   28.2547    1.9707 C.2       4 UNK         0.5031 
     21 O          29.9534   29.3808    1.5679 O.2       4 UNK        -0.5229 
     22 CA         29.4363   27.1332    0.9430 C.3       4 UNK         0.0329 
     23 CB         30.7128   26.3005    0.7578 C.3       4 UNK        -0.2001 
     24 N          28.3097   26.2390    1.2396 N.am      4 UNK        -0.4303 
     25 C          27.0550   26.6213    1.5170 C.2       3 UNK         0.5044 
     26 O          26.7168   27.7966    1.6609 O.2       3 UNK        -0.5152 
     27 CA         26.0096   25.4972    1.6413 C.3       3 UNK         0.0319 
     28 CB         24.6076   26.0219    2.0170 C.3       3 UNK        -0.2001 
     29 N          25.9461   24.6616    0.4351 N.am      3 UNK        -0.4354 
     30 C          25.6927   25.0532   -0.8266 C.2       2 UNK         0.4964 
     31 O          25.4077   26.2081   -1.1465 O.2       2 UNK        -0.5047 
     32 CA         25.7643   23.9562   -1.9145 C.3       2 UNK         0.0288 
     33 CB         26.0013   24.5279   -3.3296 C.3       2 UNK        -0.2113 
     34 N          26.7368   22.8954   -1.6095 N.am      2 UNK        -0.4145 
     35 C          28.0588   23.0461   -1.4200 C.2       1 UNK         0.5006 
     36 O          28.6670   24.1059   -1.5778 O.2       1 UNK        -0.5103 
     37 C          28.4333   29.9176    4.4464 C.2       5 UNK         0.5055 
     38 O          28.5684   30.9081    5.1672 O.2       5 UNK        -0.5220 
     39 N          27.3264   29.6770    3.7300 N.am      6 UNK        -0.4450 
     40 CA         26.2130   30.6168    3.5873 C.3       6 UNK         0.0367 
     41 CB         24.8806   29.8643    3.7409 C.3       6 UNK        -0.1929 
     42 C          26.2769   31.3310    2.2287 C.2       6 UNK         0.5070 
     43 O          26.0026   32.5294    2.1629 O.2       6 UNK        -0.5237 
     44 N          26.6276   30.5875    1.1696 N.am      7 UNK        -0.4739 
     45 CA         26.7358   31.0794   -0.2057 C.3       7 UNK         0.0276 
     46 CB         26.8175   29.8769   -1.1602 C.3       7 UNK        -0.1927 
     47 C          27.9267   32.0274   -0.4330 C.2       7 UNK         0.5013 
     48 O          27.8248   32.9290   -1.2666 O.2       7 UNK        -0.5193 
     49 N          29.0259   31.8083    0.2952 N.am      8 UNK        -0.4253 
     50 CA         30.2583   32.5897    0.2457 C.3       8 UNK         0.0242 
     51 CB         31.2151   31.9639   -0.7911 C.3       8 UNK        -0.2000 
     52 C          30.8569   32.6690    1.6609 C.2       8 UNK         0.4948 
     53 O          30.1262   32.5273    2.6441 O.2       8 UNK        -0.5275 
     54 N          32.1697   32.9170    1.7519 N.am      9 UNK        -0.4246 
     55 CA         32.9252   32.8951    3.0053 C.3       9 UNK         0.0261 
     56 CB         34.2706   33.6101    2.7984 C.3       9 UNK        -0.1959 
     57 C          33.1513   31.4508    3.4832 C.2       9 UNK         0.5033 
     58 O          33.3884   30.5646    2.6579 O.2       9 UNK        -0.5390 
     59 N          33.1061   31.2472    4.8051 N.am      10 UNK        -0.4215 
     60 CA         33.3724   29.9600    5.4476 C.3       10 UNK         0.0240 
     61 CB         32.8540   30.0004    6.8945 C.3       10 UNK        -0.1982 
     62 C          34.8692   29.6083    5.4173 C.2       10 UNK         0.4970 
     63 O          35.7156   30.4996    5.5166 O.2       10 UNK        -0.4916 
     64 N          35.1531   28.3073    5.3143 N.am      11 UNK        -0.4279 
     65 CA         36.5012   27.7186    5.3078 C.3       11 UNK         0.1003 
     66 C          37.1460   27.5472    6.7155 C.2       11 UNK         0.5709 
     67 N          36.4440   27.8166    7.8103 N.am      11 UNK        -0.7358 
     68 O          38.3145   27.1801    6.8151 O.2       11 UNK        -0.4999 
     69 C69        36.5362   26.4080    4.4714 C.3       12 UNK        -0.0954 
     70 S70        35.2642   25.1877    4.9569 S.3       12 UNK        -0.2268 
     71 C71        34.0223   25.4730    3.6562 C.3       12 UNK         0.0203 
     72 H72        27.9051   18.5354   -3.0816 H         1 UNK         0.0888 
     73 H73        27.8370   19.4304   -4.6008 H         1 UNK         0.0888 
     74 H74        29.3422   18.6561   -4.0980 H         1 UNK         0.0888 
     75 H75        28.0145   19.8803   -1.3072 H         1 UNK         0.3017 
     76 H76        29.8867   22.0120   -1.0221 H         1 UNK         0.0873 
     77 H77        27.4870   21.2160    0.7130 H         1 UNK         0.0745 
     78 H78        29.1135   20.6290    0.8888 H         1 UNK         0.0745 
     79 H79        29.8838   21.4296    3.3322 H         1 UNK         0.0705 
     80 H80        31.0073   21.7985    2.0391 H         1 UNK         0.0705 
     81 H81        32.6835   23.4396    2.4203 H         1 UNK         0.1334 
     82 H82        32.3663   26.1911    5.6890 H         1 UNK         0.1417 
     83 H83        29.1478   23.4834    4.8476 H         1 UNK         0.1562 
     84 H84        30.5397   25.8768    7.3248 H         1 UNK         0.0748 
     85 H85        29.3132   24.6717    7.0466 H         1 UNK         0.0748 
     86 H86        30.8407   27.8515    5.7952 H         1 UNK         0.0940 
     87 H87        29.7004   28.8826    6.5727 H         1 UNK         0.0940 
     88 H88        30.4833   29.5043    4.1933 H         1 UNK         0.0703 
     89 H89        29.2565   26.9994    3.5125 H         1 UNK         0.3081 
     90 H90        29.2099   27.6137   -0.0104 H         1 UNK         0.0719 
     91 H91        31.5624   26.9353    0.5021 H         1 UNK         0.0809 
     92 H92        30.5997   25.5702   -0.0438 H         1 UNK         0.0809 
     93 H93        30.9698   25.7617    1.6685 H         1 UNK         0.0809 
     94 H94        28.4909   25.2489    1.1352 H         1 UNK         0.2990 
     95 H95        26.3470   24.8500    2.4525 H         1 UNK         0.0690 
     96 H96        23.8937   25.2055    2.1246 H         1 UNK         0.0788 
     97 H97        24.2177   26.7124    1.2682 H         1 UNK         0.0788 
     98 H98        24.6348   26.5556    2.9678 H         1 UNK         0.0788 
     99 H99        26.1766   23.6886    0.5770 H         1 UNK         0.2993 
    100 H100       24.7831   23.4790   -1.9161 H         1 UNK         0.0949 
    101 H101       25.1953   25.2032   -3.6194 H         1 UNK         0.0767 
    102 H102       26.9329   25.0916   -3.3880 H         1 UNK         0.0767 
    103 H103       26.0417   23.7347   -4.0762 H         1 UNK         0.0767 
    104 H104       26.3451   21.9746   -1.4675 H         1 UNK         0.3013 
    105 H105       27.2866   28.8505    3.1405 H         1 UNK         0.3121 
    106 H106       26.2556   31.3804    4.3668 H         1 UNK         0.0774 
    107 H107       24.0371   30.5527    3.6765 H         1 UNK         0.0815 
    108 H108       24.7449   29.1117    2.9637 H         1 UNK         0.0815 
    109 H109       24.8181   29.3634    4.7069 H         1 UNK         0.0815 
    110 H110       26.7710   29.5890    1.3058 H         1 UNK         0.2987 
    111 H111       25.8249   31.6369   -0.4349 H         1 UNK         0.0949 
    112 H112       25.9516   29.2225   -1.0528 H         1 UNK         0.0806 
    113 H113       26.8511   30.2041   -2.2002 H         1 UNK         0.0806 
    114 H114       27.7101   29.2783   -0.9766 H         1 UNK         0.0806 
    115 H115       29.0381   31.0453    0.9676 H         1 UNK         0.3010 
    116 H116       30.0266   33.6134   -0.0554 H         1 UNK         0.0829 
    117 H117       30.7268   31.8467   -1.7587 H         1 UNK         0.0813 
    118 H118       32.0942   32.5869   -0.9572 H         1 UNK         0.0813 
    119 H119       31.5581   30.9781   -0.4721 H         1 UNK         0.0813 
    120 H120       32.7092   32.9821    0.9015 H         1 UNK         0.3038 
    121 H121       32.3565   33.4380    3.7638 H         1 UNK         0.0769 
    122 H122       34.8811   33.1118    2.0440 H         1 UNK         0.0811 
    123 H123       34.8491   33.6284    3.7232 H         1 UNK         0.0811 
    124 H124       34.1274   34.6448    2.4861 H         1 UNK         0.0811 
    125 H125       32.9569   32.0365    5.4170 H         1 UNK         0.3204 
    126 H126       32.8221   29.1905    4.9020 H         1 UNK         0.0748 
    127 H127       32.9611   29.0286    7.3781 H         1 UNK         0.0771 
    128 H128       33.3994   30.7272    7.4984 H         1 UNK         0.0771 
    129 H129       31.7968   30.2640    6.9314 H         1 UNK         0.0771 
    130 H130       34.4006   27.6381    5.2768 H         1 UNK         0.2980 
    131 H131       37.1558   28.4250    4.7937 H         1 UNK         0.0545 
    132 H132       35.4887   28.1255    7.7447 H         1 UNK         0.3459 
    133 H133       36.8792   27.7072    8.7126 H         1 UNK         0.3459 
    134 H134       36.4069   26.6506    3.4155 H         1 UNK         0.0616 
    135 H135       37.5154   25.9299    4.5345 H         1 UNK         0.0616 
    136 H136       33.8965   26.5428    3.4852 H         1 UNK         0.0634 
    137 H137       34.3939   25.0558    2.7189 H         1 UNK         0.0634 
@<TRIPOS>BOND
     1    1    2 1    
     2    1   72 1    
     3    1   73 1    
     4    1   74 1    
     5    2    3 2    
     6    2    4 am   BACKBONE|DICT|INTERRES
     7    4    5 1    
     8    4   75 1    
     9    5    6 1    
    10    5   35 1    
    11    5   76 1    
    12    6    7 1    
    13    6   77 1    
    14    6   78 1    
    15    7    8 1    
    16    8    9 1    
    17    8   79 1    
    18    8   80 1    
    19    9   10 ar   
    20    9   14 ar   
    21   10   11 ar   
    22   10   81 1    
    23   11   12 ar   
    24   11   71 1    
    25   12   13 ar   
    26   12   82 1    
    27   13   14 ar   
    28   13   15 1    
    29   14   83 1    
    30   15   16 1    
    31   15   84 1    
    32   15   85 1    
    33   16   17 1    
    34   17   18 1    
    35   17   86 1    
    36   17   87 1    
    37   18   19 1    
    38   18   37 1    
    39   18   88 1    
    40   19   20 am   BACKBONE|DICT|INTERRES
    41   19   89 1    
    42   20   21 2    
    43   20   22 1    
    44   22   23 1    
    45   22   24 1    
    46   22   90 1    
    47   23   91 1    
    48   23   92 1    
    49   23   93 1    
    50   24   25 am   BACKBONE|DICT|INTERRES
    51   24   94 1    
    52   25   26 2    
    53   25   27 1    
    54   27   28 1    
    55   27   29 1    
    56   27   95 1    
    57   28   96 1    
    58   28   97 1    
    59   28   98 1    
    60   29   30 am   BACKBONE|DICT|INTERRES
    61   29   99 1    
    62   30   31 2    
    63   30   32 1    
    64   32   33 1    
    65   32   34 1    
    66   32  100 1    
    67   33  101 1    
    68   33  102 1    
    69   33  103 1    
    70   34   35 am   BACKBONE|DICT|INTERRES
    71   34  104 1    
    72   35   36 2    
    73   37   38 2    
    74   37   39 am   BACKBONE|DICT|INTERRES
    75   39   40 1    
    76   39  105 1    
    77   40   41 1    
    78   40   42 1    
    79   40  106 1    
    80   41  107 1    
    81   41  108 1    
    82   41  109 1    
    83   42   43 2    
    84   42   44 am   BACKBONE|DICT|INTERRES
    85   44   45 1    
    86   44  110 1    
    87   45   46 1    
    88   45   47 1    
    89   45  111 1    
    90   46  112 1    
    91   46  113 1    
    92   46  114 1    
    93   47   48 2    
    94   47   49 am   BACKBONE|DICT|INTERRES
    95   49   50 1    
    96   49  115 1    
    97   50   51 1    
    98   50   52 1    
    99   50  116 1    
   100   51  117 1    
   101   51  118 1    
   102   51  119 1    
   103   52   53 2    
   104   52   54 am   BACKBONE|DICT|INTERRES
   105   54   55 1    
   106   54  120 1    
   107   55   56 1    
   108   55   57 1    
   109   55  121 1    
   110   56  122 1    
   111   56  123 1    
   112   56  124 1    
   113   57   58 2    
   114   57   59 am   BACKBONE|DICT|INTERRES
   115   59   60 1    
   116   59  125 1    
   117   60   61 1    
   118   60   62 1    
   119   60  126 1    
   120   61  127 1    
   121   61  128 1    
   122   61  129 1    
   123   62   63 2    
   124   62   64 am   BACKBONE|DICT|INTERRES
   125   64   65 1    
   126   64  130 1    
   127   65   66 1    
   128   65   69 1    
   129   65  131 1    
   130   66   67 am   BACKBONE|DICT|INTERRES
   131   66   68 2    
   132   67  132 1    
   133   67  133 1    
   134   69   70 1    
   135   69  134 1    
   136   69  135 1    
   137   70   71 1    
   138   71  136 1    
   139   71  137 1    
@<TRIPOS>SUBSTRUCTURE
     1 UNK         1 GROUP             0       ****    0 ROOT    
