@<TRIPOS>MOLECULE
3R136
137   139    1
SMALL
USER_CHARGES


@<TRIPOS>ATOM
      1 CA         27.5947   20.0717   -1.5092 C.3       0 UNK        -0.1979 
      2 C          27.9007   21.5085   -1.1130 C.2       0 UNK         0.4864 
      3 O          27.5536   22.4323   -1.8487 O.2       0 UNK        -0.5359 
      4 N          28.5505   21.7025    0.0425 N.am      1 UNK        -0.4318 
      5 CA         28.9278   23.0153    0.5811 C.3       1 UNK         0.0824 
      6 C6         29.9677   22.8894    1.7205 C.3       12 UNK        -0.0944 
      7 S7         31.5775   22.2701    1.1187 S.3       12 UNK        -0.2672 
      8 C8         32.7176   22.7554    2.4633 C.3       12 UNK         0.0333 
      9 C9         32.6163   24.2371    2.7991 C.ar      12 UNK        -0.0807 
     10 C10        32.1690   24.6450    4.0593 C.ar      12 UNK        -0.0894 
     11 C11        31.9766   26.0002    4.3409 C.ar      12 UNK        -0.0804 
     12 C12        32.2116   26.9472    3.3369 C.ar      12 UNK        -0.0824 
     13 C13        32.6830   26.5548    2.0805 C.ar      12 UNK        -0.0762 
     14 C14        32.9116   25.1983    1.8294 C.ar      12 UNK        -0.0782 
     15 C15        32.9351   27.6085    1.0072 C.3       12 UNK         0.0230 
     16 S16        32.3457   27.1519   -0.6638 S.3       12 UNK        -0.2608 
     17 C17        30.6411   26.5553   -0.3853 C.3       12 UNK        -0.0989 
     18 CA         29.5859   27.6893   -0.3525 C.3       5 UNK         0.0716 
     19 N          28.2843   27.2257   -0.8340 N.am      5 UNK        -0.4135 
     20 C          27.6607   27.6839   -1.9256 C.2       4 UNK         0.5031 
     21 O          28.1286   28.5315   -2.6873 O.2       4 UNK        -0.5229 
     22 CA         26.2698   27.1006   -2.2256 C.3       4 UNK         0.0329 
     23 CB         26.3954   25.8141   -3.0564 C.3       4 UNK        -0.2001 
     24 N          25.4704   26.8246   -1.0299 N.am      4 UNK        -0.4303 
     25 C          25.0339   27.7350   -0.1510 C.2       3 UNK         0.5044 
     26 O          25.2941   28.9347   -0.2297 O.2       3 UNK        -0.5152 
     27 CA         24.1639   27.2360    1.0197 C.3       3 UNK         0.0319 
     28 CB         22.6908   27.0916    0.5912 C.3       3 UNK        -0.2001 
     29 N          24.6554   26.0178    1.6820 N.am      3 UNK        -0.4354 
     30 C          24.7814   24.7784    1.1857 C.2       2 UNK         0.4964 
     31 O          24.4419   24.4429    0.0491 O.2       2 UNK        -0.5047 
     32 CA         25.4438   23.7443    2.1102 C.3       2 UNK         0.0288 
     33 CB         24.4577   22.6187    2.4635 C.3       2 UNK        -0.2113 
     34 N          26.6540   23.1605    1.5239 N.am      2 UNK        -0.4145 
     35 C          27.7187   23.8403    1.0684 C.2       1 UNK         0.5006 
     36 O          27.7929   25.0723    1.0460 O.2       1 UNK        -0.5103 
     37 C          29.4313   28.2748    1.0600 C.2       5 UNK         0.5055 
     38 O          29.9223   29.3733    1.3151 O.2       5 UNK        -0.5220 
     39 N          28.7289   27.5489    1.9443 N.am      6 UNK        -0.4450 
     40 CA         28.5829   27.8311    3.3772 C.3       6 UNK         0.0367 
     41 CB         27.8888   26.6353    4.0495 C.3       6 UNK        -0.1929 
     42 C          27.8883   29.1557    3.7459 C.2       6 UNK         0.5070 
     43 O          27.9140   29.5346    4.9172 O.2       6 UNK        -0.5237 
     44 N          27.3024   29.8527    2.7631 N.am      7 UNK        -0.4739 
     45 CA         26.8394   31.2355    2.9014 C.3       7 UNK         0.0276 
     46 CB         25.9685   31.6024    1.6899 C.3       7 UNK        -0.1927 
     47 C          27.9933   32.2467    3.0661 C.2       7 UNK         0.5013 
     48 O          27.7617   33.3240    3.6170 O.2       7 UNK        -0.5193 
     49 N          29.2006   31.8940    2.6011 N.am      8 UNK        -0.4253 
     50 CA         30.4264   32.6675    2.7779 C.3       8 UNK         0.0242 
     51 CB         31.1861   32.7134    1.4417 C.3       8 UNK        -0.2000 
     52 C          31.2942   31.9983    3.8501 C.2       8 UNK         0.4948 
     53 O          31.3890   30.7687    3.8890 O.2       8 UNK        -0.5275 
     54 N          31.9778   32.8139    4.6625 N.am      9 UNK        -0.4246 
     55 CA         32.9093   32.3792    5.7105 C.3       9 UNK         0.0261 
     56 CB         33.0348   33.4979    6.7622 C.3       9 UNK        -0.1959 
     57 C          34.2758   31.9460    5.1365 C.2       9 UNK         0.5033 
     58 O          35.3174   32.4353    5.5773 O.2       9 UNK        -0.5390 
     59 N          34.2406   31.0396    4.1547 N.am      10 UNK        -0.4215 
     60 CA         35.3950   30.4826    3.4441 C.3       10 UNK         0.0240 
     61 CB         35.2074   30.7332    1.9356 C.3       10 UNK        -0.1982 
     62 C          35.5852   28.9883    3.7676 C.2       10 UNK         0.4970 
     63 O          36.1635   28.2581    2.9615 O.2       10 UNK        -0.4916 
     64 N          35.0702   28.5571    4.9247 N.am      11 UNK        -0.4279 
     65 CA         35.0666   27.1696    5.4038 C.3       11 UNK         0.1003 
     66 C          36.4868   26.6198    5.7048 C.2       11 UNK         0.5709 
     67 N          36.7038   25.3254    5.5139 N.am      11 UNK        -0.7358 
     68 O          37.3768   27.3432    6.1496 O.2       11 UNK        -0.4999 
     69 C69        34.1322   26.9936    6.6338 C.3       12 UNK        -0.0954 
     70 S70        32.4912   27.7776    6.4408 S.3       12 UNK        -0.2268 
     71 C71        31.4992   26.4262    5.7257 C.3       12 UNK         0.0203 
     72 H72        27.9607   19.3578   -0.7716 H         1 UNK         0.0888 
     73 H73        26.5189   19.9323   -1.6119 H         1 UNK         0.0888 
     74 H74        28.0615   19.8396   -2.4661 H         1 UNK         0.0888 
     75 H75        28.8432   20.9046    0.5888 H         1 UNK         0.3017 
     76 H76        29.3812   23.5881   -0.2309 H         1 UNK         0.0873 
     77 H77        29.6077   22.2297    2.5123 H         1 UNK         0.0745 
     78 H78        30.1195   23.8647    2.1848 H         1 UNK         0.0745 
     79 H79        32.5054   22.1425    3.3407 H         1 UNK         0.0705 
     80 H80        33.7406   22.5232    2.1643 H         1 UNK         0.0705 
     81 H81        31.9510   23.9040    4.8163 H         1 UNK         0.1334 
     82 H82        32.0411   27.9960    3.5422 H         1 UNK         0.1417 
     83 H83        33.2635   24.8819    0.8569 H         1 UNK         0.1562 
     84 H84        34.0082   27.7969    0.9562 H         1 UNK         0.0748 
     85 H85        32.4734   28.5561    1.2874 H         1 UNK         0.0748 
     86 H86        30.5846   25.9133    0.4949 H         1 UNK         0.0940 
     87 H87        30.4291   25.8907   -1.2245 H         1 UNK         0.0940 
     88 H88        29.9363   28.5033   -0.9908 H         1 UNK         0.0703 
     89 H89        27.8276   26.5112   -0.2763 H         1 UNK         0.3081 
     90 H90        25.7263   27.8389   -2.8189 H         1 UNK         0.0719 
     91 H91        26.9698   25.9898   -3.9671 H         1 UNK         0.0809 
     92 H92        26.8994   25.0232   -2.4993 H         1 UNK         0.0809 
     93 H93        25.4174   25.4387   -3.3580 H         1 UNK         0.0809 
     94 H94        25.1891   25.8597   -0.8689 H         1 UNK         0.2990 
     95 H95        24.2033   28.0155    1.7828 H         1 UNK         0.0690 
     96 H96        22.3090   28.0324    0.1922 H         1 UNK         0.0788 
     97 H97        22.0579   26.8176    1.4353 H         1 UNK         0.0788 
     98 H98        22.5609   26.3363   -0.1843 H         1 UNK         0.0788 
     99 H99        24.9791   26.1673    2.6268 H         1 UNK         0.2993 
    100 H100       25.7420   24.2369    3.0378 H         1 UNK         0.0949 
    101 H101       24.8911   21.9192    3.1788 H         1 UNK         0.0767 
    102 H102       23.5504   23.0220    2.9157 H         1 UNK         0.0767 
    103 H103       24.1577   22.0537    1.5797 H         1 UNK         0.0767 
    104 H104       26.6832   22.1535    1.4690 H         1 UNK         0.3013 
    105 H105       28.3632   26.6481    1.6408 H         1 UNK         0.3121 
    106 H106       29.5910   27.9101    3.7840 H         1 UNK         0.0774 
    107 H107       27.8059   26.7830    5.1271 H         1 UNK         0.0815 
    108 H108       26.8819   26.4881    3.6616 H         1 UNK         0.0815 
    109 H109       28.4496   25.7131    3.8942 H         1 UNK         0.0815 
    110 H110       27.3211   29.4697    1.8287 H         1 UNK         0.2987 
    111 H111       26.2208   31.3007    3.7993 H         1 UNK         0.0949 
    112 H112       25.6144   32.6319    1.7590 H         1 UNK         0.0806 
    113 H113       26.5185   31.5074    0.7527 H         1 UNK         0.0806 
    114 H114       25.0878   30.9631    1.6282 H         1 UNK         0.0806 
    115 H115       29.3326   30.9599    2.2179 H         1 UNK         0.3010 
    116 H116       30.1957   33.6899    3.0848 H         1 UNK         0.0829 
    117 H117       31.4599   31.7142    1.0987 H         1 UNK         0.0813 
    118 H118       30.5855   33.1807    0.6612 H         1 UNK         0.0813 
    119 H119       32.1072   33.2905    1.5331 H         1 UNK         0.0813 
    120 H120       31.8874   33.8120    4.5345 H         1 UNK         0.3038 
    121 H121       32.4852   31.5050    6.2101 H         1 UNK         0.0769 
    122 H122       33.4642   34.4061    6.3373 H         1 UNK         0.0811 
    123 H123       33.6770   33.1886    7.5880 H         1 UNK         0.0811 
    124 H124       32.0646   33.7522    7.1893 H         1 UNK         0.0811 
    125 H125       33.3219   30.6921    3.8856 H         1 UNK         0.3204 
    126 H126       36.3118   30.9855    3.7578 H         1 UNK         0.0748 
    127 H127       36.0566   30.3603    1.3615 H         1 UNK         0.0771 
    128 H128       34.3109   30.2450    1.5539 H         1 UNK         0.0771 
    129 H129       35.1203   31.7989    1.7226 H         1 UNK         0.0771 
    130 H130       34.6244   29.2269    5.5319 H         1 UNK         0.2980 
    131 H131       34.6679   26.5665    4.5879 H         1 UNK         0.0545 
    132 H132       37.6150   24.9462    5.7190 H         1 UNK         0.3459 
    133 H133       35.9778   24.7219    5.1606 H         1 UNK         0.3459 
    134 H134       33.9945   25.9344    6.8583 H         1 UNK         0.0616 
    135 H135       34.5922   27.4327    7.5211 H         1 UNK         0.0616 
    136 H136       31.5113   25.5834    6.4184 H         1 UNK         0.0634 
    137 H137       30.4617   26.7526    5.6596 H         1 UNK         0.0634 
@<TRIPOS>BOND
     1    1    2 1    
     2    1   72 1    
     3    1   73 1    
     4    1   74 1    
     5    2    3 2    
     6    2    4 am   BACKBONE|DICT|INTERRES
     7    4    5 1    
     8    4   75 1    
     9    5    6 1    
    10    5   35 1    
    11    5   76 1    
    12    6    7 1    
    13    6   77 1    
    14    6   78 1    
    15    7    8 1    
    16    8    9 1    
    17    8   79 1    
    18    8   80 1    
    19    9   10 ar   
    20    9   14 ar   
    21   10   11 ar   
    22   10   81 1    
    23   11   12 ar   
    24   11   71 1    
    25   12   13 ar   
    26   12   82 1    
    27   13   14 ar   
    28   13   15 1    
    29   14   83 1    
    30   15   16 1    
    31   15   84 1    
    32   15   85 1    
    33   16   17 1    
    34   17   18 1    
    35   17   86 1    
    36   17   87 1    
    37   18   19 1    
    38   18   37 1    
    39   18   88 1    
    40   19   20 am   BACKBONE|DICT|INTERRES
    41   19   89 1    
    42   20   21 2    
    43   20   22 1    
    44   22   23 1    
    45   22   24 1    
    46   22   90 1    
    47   23   91 1    
    48   23   92 1    
    49   23   93 1    
    50   24   25 am   BACKBONE|DICT|INTERRES
    51   24   94 1    
    52   25   26 2    
    53   25   27 1    
    54   27   28 1    
    55   27   29 1    
    56   27   95 1    
    57   28   96 1    
    58   28   97 1    
    59   28   98 1    
    60   29   30 am   BACKBONE|DICT|INTERRES
    61   29   99 1    
    62   30   31 2    
    63   30   32 1    
    64   32   33 1    
    65   32   34 1    
    66   32  100 1    
    67   33  101 1    
    68   33  102 1    
    69   33  103 1    
    70   34   35 am   BACKBONE|DICT|INTERRES
    71   34  104 1    
    72   35   36 2    
    73   37   38 2    
    74   37   39 am   BACKBONE|DICT|INTERRES
    75   39   40 1    
    76   39  105 1    
    77   40   41 1    
    78   40   42 1    
    79   40  106 1    
    80   41  107 1    
    81   41  108 1    
    82   41  109 1    
    83   42   43 2    
    84   42   44 am   BACKBONE|DICT|INTERRES
    85   44   45 1    
    86   44  110 1    
    87   45   46 1    
    88   45   47 1    
    89   45  111 1    
    90   46  112 1    
    91   46  113 1    
    92   46  114 1    
    93   47   48 2    
    94   47   49 am   BACKBONE|DICT|INTERRES
    95   49   50 1    
    96   49  115 1    
    97   50   51 1    
    98   50   52 1    
    99   50  116 1    
   100   51  117 1    
   101   51  118 1    
   102   51  119 1    
   103   52   53 2    
   104   52   54 am   BACKBONE|DICT|INTERRES
   105   54   55 1    
   106   54  120 1    
   107   55   56 1    
   108   55   57 1    
   109   55  121 1    
   110   56  122 1    
   111   56  123 1    
   112   56  124 1    
   113   57   58 2    
   114   57   59 am   BACKBONE|DICT|INTERRES
   115   59   60 1    
   116   59  125 1    
   117   60   61 1    
   118   60   62 1    
   119   60  126 1    
   120   61  127 1    
   121   61  128 1    
   122   61  129 1    
   123   62   63 2    
   124   62   64 am   BACKBONE|DICT|INTERRES
   125   64   65 1    
   126   64  130 1    
   127   65   66 1    
   128   65   69 1    
   129   65  131 1    
   130   66   67 am   BACKBONE|DICT|INTERRES
   131   66   68 2    
   132   67  132 1    
   133   67  133 1    
   134   69   70 1    
   135   69  134 1    
   136   69  135 1    
   137   70   71 1    
   138   71  136 1    
   139   71  137 1    
@<TRIPOS>SUBSTRUCTURE
     1 UNK         1 GROUP             0       ****    0 ROOT    
