@<TRIPOS>MOLECULE
3R136
137   139    1
SMALL
USER_CHARGES


@<TRIPOS>ATOM
      1 CA         27.3822   21.7315    0.0947 C.3       0 UNK        -0.1979 
      2 C          28.1814   22.5606   -0.8969 C.2       0 UNK         0.4864 
      3 O          27.7378   22.7500   -2.0299 O.2       0 UNK        -0.5359 
      4 N          29.3463   23.0738   -0.4764 N.am      1 UNK        -0.4318 
      5 CA         30.3244   23.7906   -1.3134 C.3       1 UNK         0.0824 
      6 C6         31.6449   24.0585   -0.5518 C.3       12 UNK        -0.0944 
      7 S7         32.4044   22.5004    0.0199 S.3       12 UNK        -0.2672 
      8 C8         33.2098   23.0095    1.5732 C.3       12 UNK         0.0333 
      9 C9         32.2389   23.4316    2.6730 C.ar      12 UNK        -0.0807 
     10 C10        32.5098   24.5829    3.4192 C.ar      12 UNK        -0.0894 
     11 C11        31.6748   24.9599    4.4736 C.ar      12 UNK        -0.0804 
     12 C12        30.5577   24.1811    4.7791 C.ar      12 UNK        -0.0824 
     13 C13        30.2606   23.0362    4.0336 C.ar      12 UNK        -0.0762 
     14 C14        31.1111   22.6612    2.9870 C.ar      12 UNK        -0.0782 
     15 C15        29.0497   22.1815    4.3903 C.3       12 UNK         0.0230 
     16 S16        27.5265   22.7303    3.5490 S.3       12 UNK        -0.2608 
     17 C17        27.1317   24.2772    4.4311 C.3       12 UNK        -0.0989 
     18 CA         27.2683   25.5085    3.4889 C.3       5 UNK         0.0716 
     19 N          26.1130   25.6770    2.5906 N.am      5 UNK        -0.4135 
     20 C          24.8609   25.9978    2.9591 C.2       4 UNK         0.5031 
     21 O          24.5002   26.1178    4.1307 O.2       4 UNK        -0.5229 
     22 CA         23.8310   26.2731    1.8477 C.3       4 UNK         0.0329 
     23 CB         23.4335   27.7596    1.8503 C.3       4 UNK        -0.2001 
     24 N          24.2937   25.9232    0.5039 N.am      4 UNK        -0.4303 
     25 C          24.2725   24.7021   -0.0402 C.2       3 UNK         0.5044 
     26 O          23.8922   23.6950    0.5560 O.2       3 UNK        -0.5152 
     27 CA         24.7706   24.5801   -1.4929 C.3       3 UNK         0.0319 
     28 CB         23.7150   25.0965   -2.4901 C.3       3 UNK        -0.2001 
     29 N          26.0905   25.1828   -1.7398 N.am      3 UNK        -0.4354 
     30 C          26.4622   26.4731   -1.6753 C.2       2 UNK         0.4964 
     31 O          25.6893   27.3925   -1.4017 O.2       2 UNK        -0.5047 
     32 CA         27.9545   26.7748   -1.8966 C.3       2 UNK         0.0288 
     33 CB         28.3895   28.1272   -1.3010 C.3       2 UNK        -0.2113 
     34 N          28.7701   25.6979   -1.3322 N.am      2 UNK        -0.4145 
     35 C          29.7825   25.0860   -1.9585 C.2       1 UNK         0.5006 
     36 O          30.2648   25.4764   -3.0232 O.2       1 UNK        -0.5103 
     37 C          27.6014   26.8326    4.2178 C.2       5 UNK         0.5055 
     38 O          27.8166   26.8520    5.4310 O.2       5 UNK        -0.5220 
     39 N          27.6297   27.9224    3.4402 N.am      6 UNK        -0.4450 
     40 CA         27.9390   29.2810    3.8758 C.3       6 UNK         0.0367 
     41 CB         26.6489   29.9927    4.3277 C.3       6 UNK        -0.1929 
     42 C          28.6600   29.9991    2.7266 C.2       6 UNK         0.5070 
     43 O          28.2079   31.0435    2.2561 O.2       6 UNK        -0.5237 
     44 N          29.7660   29.4011    2.2678 N.am      7 UNK        -0.4739 
     45 CA         30.6020   29.8311    1.1417 C.3       7 UNK         0.0276 
     46 CB         31.4253   28.6188    0.6627 C.3       7 UNK        -0.1927 
     47 C          31.4855   31.0574    1.4601 C.2       7 UNK         0.5013 
     48 O          32.6837   31.0483    1.1673 O.2       7 UNK        -0.5193 
     49 N          30.8763   32.0949    2.0509 N.am      8 UNK        -0.4253 
     50 CA         31.4664   33.3810    2.4352 C.3       8 UNK         0.0242 
     51 CB         31.6558   34.2649    1.1808 C.3       8 UNK        -0.2000 
     52 C          32.7416   33.2015    3.2832 C.2       8 UNK         0.4948 
     53 O          32.6858   32.5389    4.3213 O.2       8 UNK        -0.5275 
     54 N          33.8700   33.7534    2.8178 N.am      9 UNK        -0.4246 
     55 CA         35.1828   33.7049    3.4671 C.3       9 UNK         0.0261 
     56 CB         36.1672   34.5752    2.6683 C.3       9 UNK        -0.1959 
     57 C          35.7611   32.2913    3.6724 C.2       9 UNK         0.5033 
     58 O          36.6397   32.1352    4.5218 O.2       9 UNK        -0.5390 
     59 N          35.2738   31.2896    2.9232 N.am      10 UNK        -0.4215 
     60 CA         35.6583   29.8871    3.1044 C.3       10 UNK         0.0240 
     61 CB         35.3579   29.0938    1.8231 C.3       10 UNK        -0.1982 
     62 C          34.9867   29.2300    4.3250 C.2       10 UNK         0.4970 
     63 O          35.5012   28.2153    4.7976 O.2       10 UNK        -0.4916 
     64 N          33.8759   29.8016    4.8122 N.am      11 UNK        -0.4279 
     65 CA         33.1486   29.3336    6.0025 C.3       11 UNK         0.1003 
     66 C          33.2178   30.3445    7.1772 C.2       11 UNK         0.5709 
     67 N          33.2829   31.6468    6.9291 N.am      11 UNK        -0.7358 
     68 O          33.2268   29.9380    8.3366 O.2       11 UNK        -0.4999 
     69 C69        31.6755   28.9698    5.6846 C.3       12 UNK        -0.0954 
     70 S70        31.5059   27.6989    4.3902 S.3       12 UNK        -0.2268 
     71 C71        31.9857   26.2010    5.2928 C.3       12 UNK         0.0203 
     72 H72        28.0088   21.3644    0.9072 H         1 UNK         0.0888 
     73 H73        26.5741   22.3253    0.5213 H         1 UNK         0.0888 
     74 H74        26.9434   20.8675   -0.4036 H         1 UNK         0.0888 
     75 H75        29.6552   22.8832    0.4662 H         1 UNK         0.3017 
     76 H76        30.5565   23.1244   -2.1475 H         1 UNK         0.0873 
     77 H77        31.4683   24.7211    0.2977 H         1 UNK         0.0745 
     78 H78        32.3682   24.5657   -1.1936 H         1 UNK         0.0745 
     79 H79        33.8066   22.1750    1.9434 H         1 UNK         0.0705 
     80 H80        33.9131   23.8128    1.3473 H         1 UNK         0.0705 
     81 H81        33.3797   25.1844    3.1920 H         1 UNK         0.1334 
     82 H82        29.9283   24.4684    5.6088 H         1 UNK         0.1417 
     83 H83        30.9051   21.7593    2.4268 H         1 UNK         0.1562 
     84 H84        28.8916   22.1794    5.4700 H         1 UNK         0.0748 
     85 H85        29.2398   21.1427    4.1162 H         1 UNK         0.0748 
     86 H86        27.7735   24.3526    5.3066 H         1 UNK         0.0940 
     87 H87        26.1233   24.1988    4.8382 H         1 UNK         0.0940 
     88 H88        28.1336   25.3362    2.8460 H         1 UNK         0.0703 
     89 H89        26.2941   25.5784    1.6044 H         1 UNK         0.3081 
     90 H90        22.9421   25.6811    2.0764 H         1 UNK         0.0719 
     91 H91        22.6546   27.9630    1.1151 H         1 UNK         0.0809 
     92 H92        24.2836   28.4054    1.6258 H         1 UNK         0.0809 
     93 H93        23.0431   28.0613    2.8235 H         1 UNK         0.0809 
     94 H94        24.6447   26.6800   -0.0806 H         1 UNK         0.2990 
     95 H95        24.9005   23.5137   -1.6859 H         1 UNK         0.0690 
     96 H96        24.0311   24.9315   -3.5202 H         1 UNK         0.0788 
     97 H97        23.5177   26.1619   -2.3675 H         1 UNK         0.0788 
     98 H98        22.7662   24.5753   -2.3555 H         1 UNK         0.0788 
     99 H99        26.8061   24.5007   -1.9789 H         1 UNK         0.2993 
    100 H100       28.0905   26.8195   -2.9795 H         1 UNK         0.0949 
    101 H101       29.4312   28.3401   -1.5395 H         1 UNK         0.0767 
    102 H102       27.7975   28.9482   -1.7077 H         1 UNK         0.0767 
    103 H103       28.2765   28.1463   -0.2168 H         1 UNK         0.0767 
    104 H104       28.4496   25.3000   -0.4618 H         1 UNK         0.3013 
    105 H105       27.4552   27.8177    2.4508 H         1 UNK         0.3121 
    106 H106       28.6329   29.2490    4.7187 H         1 UNK         0.0774 
    107 H107       26.8591   31.0105    4.6584 H         1 UNK         0.0815 
    108 H108       25.9185   30.0533    3.5200 H         1 UNK         0.0815 
    109 H109       26.1810   29.4707    5.1625 H         1 UNK         0.0815 
    110 H110       30.0993   28.5873    2.7698 H         1 UNK         0.2987 
    111 H111       29.9432   30.1323    0.3248 H         1 UNK         0.0949 
    112 H112       32.1144   28.2735    1.4330 H         1 UNK         0.0806 
    113 H113       30.7860   27.7772    0.3976 H         1 UNK         0.0806 
    114 H114       32.0159   28.8663   -0.2203 H         1 UNK         0.0806 
    115 H115       29.8867   31.9785    2.2527 H         1 UNK         0.3010 
    116 H116       30.7408   33.8737    3.0840 H         1 UNK         0.0829 
    117 H117       30.7089   34.4038    0.6587 H         1 UNK         0.0813 
    118 H118       32.0170   35.2602    1.4437 H         1 UNK         0.0813 
    119 H119       32.3570   33.8264    0.4694 H         1 UNK         0.0813 
    120 H120       33.8219   34.2509    1.9404 H         1 UNK         0.3038 
    121 H121       35.0671   34.1451    4.4598 H         1 UNK         0.0769 
    122 H122       37.1495   34.5913    3.1429 H         1 UNK         0.0811 
    123 H123       35.8252   35.6084    2.6052 H         1 UNK         0.0811 
    124 H124       36.3030   34.2016    1.6525 H         1 UNK         0.0811 
    125 H125       34.5309   31.4778    2.2576 H         1 UNK         0.3204 
    126 H126       36.7373   29.8460    3.2696 H         1 UNK         0.0748 
    127 H127       35.7141   28.0663    1.9089 H         1 UNK         0.0771 
    128 H128       34.2900   29.0481    1.6185 H         1 UNK         0.0771 
    129 H129       35.8480   29.5361    0.9557 H         1 UNK         0.0771 
    130 H130       33.5314   30.6586    4.3960 H         1 UNK         0.2980 
    131 H131       33.6219   28.4268    6.3817 H         1 UNK         0.0545 
    132 H132       33.1758   32.0023    5.9822 H         1 UNK         0.3459 
    133 H133       33.3374   32.2905    7.7017 H         1 UNK         0.3459 
    134 H134       31.1344   29.8568    5.3495 H         1 UNK         0.0616 
    135 H135       31.1592   28.6178    6.5798 H         1 UNK         0.0616 
    136 H136       33.0528   26.2373    5.5168 H         1 UNK         0.0634 
    137 H137       31.4636   26.1695    6.2505 H         1 UNK         0.0634 
@<TRIPOS>BOND
     1    1    2 1    
     2    1   72 1    
     3    1   73 1    
     4    1   74 1    
     5    2    3 2    
     6    2    4 am   BACKBONE|DICT|INTERRES
     7    4    5 1    
     8    4   75 1    
     9    5    6 1    
    10    5   35 1    
    11    5   76 1    
    12    6    7 1    
    13    6   77 1    
    14    6   78 1    
    15    7    8 1    
    16    8    9 1    
    17    8   79 1    
    18    8   80 1    
    19    9   10 ar   
    20    9   14 ar   
    21   10   11 ar   
    22   10   81 1    
    23   11   12 ar   
    24   11   71 1    
    25   12   13 ar   
    26   12   82 1    
    27   13   14 ar   
    28   13   15 1    
    29   14   83 1    
    30   15   16 1    
    31   15   84 1    
    32   15   85 1    
    33   16   17 1    
    34   17   18 1    
    35   17   86 1    
    36   17   87 1    
    37   18   19 1    
    38   18   37 1    
    39   18   88 1    
    40   19   20 am   BACKBONE|DICT|INTERRES
    41   19   89 1    
    42   20   21 2    
    43   20   22 1    
    44   22   23 1    
    45   22   24 1    
    46   22   90 1    
    47   23   91 1    
    48   23   92 1    
    49   23   93 1    
    50   24   25 am   BACKBONE|DICT|INTERRES
    51   24   94 1    
    52   25   26 2    
    53   25   27 1    
    54   27   28 1    
    55   27   29 1    
    56   27   95 1    
    57   28   96 1    
    58   28   97 1    
    59   28   98 1    
    60   29   30 am   BACKBONE|DICT|INTERRES
    61   29   99 1    
    62   30   31 2    
    63   30   32 1    
    64   32   33 1    
    65   32   34 1    
    66   32  100 1    
    67   33  101 1    
    68   33  102 1    
    69   33  103 1    
    70   34   35 am   BACKBONE|DICT|INTERRES
    71   34  104 1    
    72   35   36 2    
    73   37   38 2    
    74   37   39 am   BACKBONE|DICT|INTERRES
    75   39   40 1    
    76   39  105 1    
    77   40   41 1    
    78   40   42 1    
    79   40  106 1    
    80   41  107 1    
    81   41  108 1    
    82   41  109 1    
    83   42   43 2    
    84   42   44 am   BACKBONE|DICT|INTERRES
    85   44   45 1    
    86   44  110 1    
    87   45   46 1    
    88   45   47 1    
    89   45  111 1    
    90   46  112 1    
    91   46  113 1    
    92   46  114 1    
    93   47   48 2    
    94   47   49 am   BACKBONE|DICT|INTERRES
    95   49   50 1    
    96   49  115 1    
    97   50   51 1    
    98   50   52 1    
    99   50  116 1    
   100   51  117 1    
   101   51  118 1    
   102   51  119 1    
   103   52   53 2    
   104   52   54 am   BACKBONE|DICT|INTERRES
   105   54   55 1    
   106   54  120 1    
   107   55   56 1    
   108   55   57 1    
   109   55  121 1    
   110   56  122 1    
   111   56  123 1    
   112   56  124 1    
   113   57   58 2    
   114   57   59 am   BACKBONE|DICT|INTERRES
   115   59   60 1    
   116   59  125 1    
   117   60   61 1    
   118   60   62 1    
   119   60  126 1    
   120   61  127 1    
   121   61  128 1    
   122   61  129 1    
   123   62   63 2    
   124   62   64 am   BACKBONE|DICT|INTERRES
   125   64   65 1    
   126   64  130 1    
   127   65   66 1    
   128   65   69 1    
   129   65  131 1    
   130   66   67 am   BACKBONE|DICT|INTERRES
   131   66   68 2    
   132   67  132 1    
   133   67  133 1    
   134   69   70 1    
   135   69  134 1    
   136   69  135 1    
   137   70   71 1    
   138   71  136 1    
   139   71  137 1    
@<TRIPOS>SUBSTRUCTURE
     1 UNK         1 GROUP             0       ****    0 ROOT    
