@<TRIPOS>MOLECULE
3R136
137   139    1
SMALL
USER_CHARGES


@<TRIPOS>ATOM
      1 CA         27.5206   29.8586   -0.7182 C.3       0 UNK        -0.1979 
      2 C          27.8731   28.4542   -0.2529 C.2       0 UNK         0.4864 
      3 O          27.1823   27.9087    0.6058 O.2       0 UNK        -0.5359 
      4 N          28.9450   27.8707   -0.8019 N.am      1 UNK        -0.4318 
      5 CA         29.4044   26.5108   -0.5115 C.3       1 UNK         0.0824 
      6 C6         30.8846   26.3263   -0.9583 C.3       12 UNK        -0.0944 
      7 S7         31.5171   24.6090   -0.9383 S.3       12 UNK        -0.2672 
      8 C8         32.6066   24.6124    0.5167 C.3       12 UNK         0.0333 
      9 C9         31.8270   24.7630    1.8139 C.ar      12 UNK        -0.0807 
     10 C10        31.9263   25.9382    2.5611 C.ar      12 UNK        -0.0894 
     11 C11        31.2466   26.0715    3.7747 C.ar      12 UNK        -0.0804 
     12 C12        30.4598   25.0139    4.2404 C.ar      12 UNK        -0.0824 
     13 C13        30.3354   23.8388    3.4899 C.ar      12 UNK        -0.0762 
     14 C14        31.0253   23.7179    2.2803 C.ar      12 UNK        -0.0782 
     15 C15        29.4607   22.6940    3.9799 C.3       12 UNK         0.0230 
     16 S16        27.7927   22.7633    3.2499 S.3       12 UNK        -0.2608 
     17 C17        27.0970   24.2205    4.0976 C.3       12 UNK        -0.0989 
     18 CA         27.0752   25.4801    3.1860 C.3       5 UNK         0.0716 
     19 N          26.1961   25.3242    2.0161 N.am      5 UNK        -0.4135 
     20 C          24.8553   25.2636    2.0356 C.2       4 UNK         0.5031 
     21 O          24.1792   25.2727    3.0654 O.2       4 UNK        -0.5229 
     22 CA         24.1317   25.1802    0.6876 C.3       4 UNK         0.0329 
     23 CB         24.0770   26.5491   -0.0123 C.3       4 UNK        -0.2001 
     24 N          24.7379   24.1907   -0.2029 N.am      4 UNK        -0.4303 
     25 C          24.0413   23.3239   -0.9504 C.2       3 UNK         0.5044 
     26 O          22.8113   23.2416   -0.9286 O.2       3 UNK        -0.5152 
     27 CA         24.8425   22.3831   -1.8757 C.3       3 UNK         0.0319 
     28 CB         24.0265   21.9232   -3.1034 C.3       3 UNK        -0.2001 
     29 N          26.1443   22.9147   -2.2981 N.am      3 UNK        -0.4354 
     30 C          26.3849   24.0445   -2.9811 C.2       2 UNK         0.4964 
     31 O          25.5201   24.8396   -3.3537 O.2       2 UNK        -0.5047 
     32 CA         27.8636   24.3281   -3.2921 C.3       2 UNK         0.0288 
     33 CB         28.0571   24.6957   -4.7740 C.3       2 UNK        -0.2113 
     34 N          28.4683   25.3730   -2.4607 N.am      2 UNK        -0.4145 
     35 C          28.4303   25.4792   -1.1223 C.2       1 UNK         0.5006 
     36 O          27.7024   24.8127   -0.3808 O.2       1 UNK        -0.5103 
     37 C          26.7739   26.7787    3.9757 C.2       5 UNK         0.5055 
     38 O          26.8091   26.7782    5.2082 O.2       5 UNK        -0.5220 
     39 N          26.4478   27.8576    3.2528 N.am      6 UNK        -0.4450 
     40 CA         26.0123   29.1346    3.8116 C.3       6 UNK         0.0367 
     41 CB         25.1573   29.8825    2.7748 C.3       6 UNK        -0.1929 
     42 C          27.1938   29.9965    4.2729 C.2       6 UNK         0.5070 
     43 O          27.1630   30.5116    5.3910 O.2       6 UNK        -0.5237 
     44 N          28.2065   30.1445    3.4107 N.am      7 UNK        -0.4739 
     45 CA         29.3889   30.9731    3.6364 C.3       7 UNK         0.0276 
     46 CB         29.0180   32.4702    3.5890 C.3       7 UNK        -0.1927 
     47 C          30.4433   30.6623    2.5704 C.2       7 UNK         0.5013 
     48 O          30.0974   30.2066    1.4789 O.2       7 UNK        -0.5193 
     49 N          31.7022   30.9513    2.9050 N.am      8 UNK        -0.4253 
     50 CA         32.8906   30.8596    2.0631 C.3       8 UNK         0.0242 
     51 CB         33.2424   29.3914    1.7586 C.3       8 UNK        -0.2000 
     52 C          34.0302   31.5325    2.8345 C.2       8 UNK         0.4948 
     53 O          33.9202   31.6923    4.0531 O.2       8 UNK        -0.5275 
     54 N          35.1218   31.8721    2.1366 N.am      9 UNK        -0.4246 
     55 CA         36.3129   32.5117    2.7147 C.3       9 UNK         0.0261 
     56 CB         37.2890   32.8834    1.5863 C.3       9 UNK        -0.1959 
     57 C          37.0288   31.6688    3.7895 C.2       9 UNK         0.5033 
     58 O          37.6644   32.2375    4.6780 O.2       9 UNK        -0.5390 
     59 N          36.9062   30.3380    3.6950 N.am      10 UNK        -0.4215 
     60 CA         37.4248   29.3783    4.6714 C.3       10 UNK         0.0240 
     61 CB         37.6354   28.0262    3.9686 C.3       10 UNK        -0.1982 
     62 C          36.5144   29.2001    5.9025 C.2       10 UNK         0.4970 
     63 O          36.9822   28.6587    6.9055 O.2       10 UNK        -0.4916 
     64 N          35.2453   29.6167    5.8074 N.am      11 UNK        -0.4279 
     65 CA         34.2295   29.4740    6.8601 C.3       11 UNK         0.1003 
     66 C          34.1159   30.7527    7.7351 C.2       11 UNK         0.5709 
     67 N          33.3918   30.6775    8.8441 N.am      11 UNK        -0.7358 
     68 O          34.6699   31.8086    7.4340 O.2       11 UNK        -0.4999 
     69 C69        32.8595   29.0496    6.2622 C.3       12 UNK        -0.0954 
     70 S70        32.9460   27.4030    5.4841 S.3       12 UNK        -0.2268 
     71 C71        31.3721   27.3567    4.5778 C.3       12 UNK         0.0203 
     72 H72        28.1687   30.1941   -1.5273 H         1 UNK         0.0888 
     73 H73        26.4903   29.8887   -1.0714 H         1 UNK         0.0888 
     74 H74        27.6202   30.5617    0.1083 H         1 UNK         0.0888 
     75 H75        29.4840   28.3850   -1.4833 H         1 UNK         0.3017 
     76 H76        29.3749   26.3693    0.5716 H         1 UNK         0.0873 
     77 H77        31.0177   26.6941   -1.9771 H         1 UNK         0.0745 
     78 H78        31.5294   26.9535   -0.3410 H         1 UNK         0.0745 
     79 H79        33.1616   23.6735    0.5416 H         1 UNK         0.0705 
     80 H80        33.3512   25.4029    0.4099 H         1 UNK         0.0705 
     81 H81        32.5504   26.7436    2.2066 H         1 UNK         0.1334 
     82 H82        29.9390   25.1102    5.1830 H         1 UNK         0.1417 
     83 H83        30.9366   22.8103    1.6982 H         1 UNK         0.1562 
     84 H84        29.3904   22.6991    5.0688 H         1 UNK         0.0748 
     85 H85        29.9204   21.7412    3.7130 H         1 UNK         0.0748 
     86 H86        27.6724   24.3982    5.0068 H         1 UNK         0.0940 
     87 H87        26.0900   23.9752    4.4384 H         1 UNK         0.0940 
     88 H88        28.0778   25.6207    2.7804 H         1 UNK         0.0703 
     89 H89        26.6774   25.3126    1.1209 H         1 UNK         0.3081 
     90 H90        23.1050   24.8887    0.9197 H         1 UNK         0.0719 
     91 H91        23.7505   27.3333    0.6720 H         1 UNK         0.0809 
     92 H92        25.0503   26.8383   -0.4075 H         1 UNK         0.0809 
     93 H93        23.3767   26.5326   -0.8475 H         1 UNK         0.0809 
     94 H94        25.7502   24.1952   -0.2777 H         1 UNK         0.2990 
     95 H95        25.0599   21.4973   -1.2771 H         1 UNK         0.0690 
     96 H96        24.6023   21.2431   -3.7311 H         1 UNK         0.0788 
     97 H97        23.7155   22.7672   -3.7201 H         1 UNK         0.0788 
     98 H98        23.1234   21.3921   -2.7999 H         1 UNK         0.0788 
     99 H99        26.9418   22.3650   -2.0080 H         1 UNK         0.2993 
    100 H100       28.4320   23.4142   -3.1071 H         1 UNK         0.0949 
    101 H101       27.5848   25.6482   -5.0184 H         1 UNK         0.0767 
    102 H102       29.1139   24.7685   -5.0319 H         1 UNK         0.0767 
    103 H103       27.6184   23.9381   -5.4252 H         1 UNK         0.0767 
    104 H104       29.0775   26.0092   -2.9520 H         1 UNK         0.3013 
    105 H105       26.5386   27.8043    2.2366 H         1 UNK         0.3121 
    106 H106       25.3823   28.9376    4.6820 H         1 UNK         0.0774 
    107 H107       25.7128   30.0867    1.8590 H         1 UNK         0.0815 
    108 H108       24.2715   29.3070    2.5056 H         1 UNK         0.0815 
    109 H109       24.8145   30.8398    3.1696 H         1 UNK         0.0815 
    110 H110       28.1898   29.6644    2.5186 H         1 UNK         0.2987 
    111 H111       29.8031   30.7272    4.6169 H         1 UNK         0.0949 
    112 H112       28.3230   32.7410    4.3835 H         1 UNK         0.0806 
    113 H113       29.9000   33.1000    3.7127 H         1 UNK         0.0806 
    114 H114       28.5574   32.7379    2.6371 H         1 UNK         0.0806 
    115 H115       31.9074   31.3504    3.8145 H         1 UNK         0.3010 
    116 H116       32.7106   31.4065    1.1354 H         1 UNK         0.0829 
    117 H117       32.4294   28.8860    1.2380 H         1 UNK         0.0813 
    118 H118       34.1210   29.3204    1.1167 H         1 UNK         0.0813 
    119 H119       33.4599   28.8376    2.6724 H         1 UNK         0.0813 
    120 H120       35.1371   31.7033    1.1404 H         1 UNK         0.3038 
    121 H121       35.9852   33.4343    3.1987 H         1 UNK         0.0769 
    122 H122       37.6322   32.0030    1.0415 H         1 UNK         0.0811 
    123 H123       36.8289   33.5649    0.8705 H         1 UNK         0.0811 
    124 H124       38.1727   33.3847    1.9842 H         1 UNK         0.0811 
    125 H125       36.3825   29.9617    2.9187 H         1 UNK         0.3204 
    126 H126       38.3947   29.7297    5.0303 H         1 UNK         0.0748 
    127 H127       36.6972   27.6151    3.5930 H         1 UNK         0.0771 
    128 H128       38.3240   28.1178    3.1282 H         1 UNK         0.0771 
    129 H129       38.0608   27.2915    4.6539 H         1 UNK         0.0771 
    130 H130       34.9583   30.1675    5.0079 H         1 UNK         0.2980 
    131 H131       34.5431   28.6804    7.5411 H         1 UNK         0.0545 
    132 H132       32.9369   29.8196    9.1146 H         1 UNK         0.3459 
    133 H133       33.3055   31.4953    9.4272 H         1 UNK         0.3459 
    134 H134       32.5200   29.7791    5.5257 H         1 UNK         0.0616 
    135 H135       32.0892   29.0061    7.0338 H         1 UNK         0.0616 
    136 H136       31.3147   28.2114    3.9051 H         1 UNK         0.0634 
    137 H137       30.5435   27.4566    5.2808 H         1 UNK         0.0634 
@<TRIPOS>BOND
     1    1    2 1    
     2    1   72 1    
     3    1   73 1    
     4    1   74 1    
     5    2    3 2    
     6    2    4 am   BACKBONE|DICT|INTERRES
     7    4    5 1    
     8    4   75 1    
     9    5    6 1    
    10    5   35 1    
    11    5   76 1    
    12    6    7 1    
    13    6   77 1    
    14    6   78 1    
    15    7    8 1    
    16    8    9 1    
    17    8   79 1    
    18    8   80 1    
    19    9   10 ar   
    20    9   14 ar   
    21   10   11 ar   
    22   10   81 1    
    23   11   12 ar   
    24   11   71 1    
    25   12   13 ar   
    26   12   82 1    
    27   13   14 ar   
    28   13   15 1    
    29   14   83 1    
    30   15   16 1    
    31   15   84 1    
    32   15   85 1    
    33   16   17 1    
    34   17   18 1    
    35   17   86 1    
    36   17   87 1    
    37   18   19 1    
    38   18   37 1    
    39   18   88 1    
    40   19   20 am   BACKBONE|DICT|INTERRES
    41   19   89 1    
    42   20   21 2    
    43   20   22 1    
    44   22   23 1    
    45   22   24 1    
    46   22   90 1    
    47   23   91 1    
    48   23   92 1    
    49   23   93 1    
    50   24   25 am   BACKBONE|DICT|INTERRES
    51   24   94 1    
    52   25   26 2    
    53   25   27 1    
    54   27   28 1    
    55   27   29 1    
    56   27   95 1    
    57   28   96 1    
    58   28   97 1    
    59   28   98 1    
    60   29   30 am   BACKBONE|DICT|INTERRES
    61   29   99 1    
    62   30   31 2    
    63   30   32 1    
    64   32   33 1    
    65   32   34 1    
    66   32  100 1    
    67   33  101 1    
    68   33  102 1    
    69   33  103 1    
    70   34   35 am   BACKBONE|DICT|INTERRES
    71   34  104 1    
    72   35   36 2    
    73   37   38 2    
    74   37   39 am   BACKBONE|DICT|INTERRES
    75   39   40 1    
    76   39  105 1    
    77   40   41 1    
    78   40   42 1    
    79   40  106 1    
    80   41  107 1    
    81   41  108 1    
    82   41  109 1    
    83   42   43 2    
    84   42   44 am   BACKBONE|DICT|INTERRES
    85   44   45 1    
    86   44  110 1    
    87   45   46 1    
    88   45   47 1    
    89   45  111 1    
    90   46  112 1    
    91   46  113 1    
    92   46  114 1    
    93   47   48 2    
    94   47   49 am   BACKBONE|DICT|INTERRES
    95   49   50 1    
    96   49  115 1    
    97   50   51 1    
    98   50   52 1    
    99   50  116 1    
   100   51  117 1    
   101   51  118 1    
   102   51  119 1    
   103   52   53 2    
   104   52   54 am   BACKBONE|DICT|INTERRES
   105   54   55 1    
   106   54  120 1    
   107   55   56 1    
   108   55   57 1    
   109   55  121 1    
   110   56  122 1    
   111   56  123 1    
   112   56  124 1    
   113   57   58 2    
   114   57   59 am   BACKBONE|DICT|INTERRES
   115   59   60 1    
   116   59  125 1    
   117   60   61 1    
   118   60   62 1    
   119   60  126 1    
   120   61  127 1    
   121   61  128 1    
   122   61  129 1    
   123   62   63 2    
   124   62   64 am   BACKBONE|DICT|INTERRES
   125   64   65 1    
   126   64  130 1    
   127   65   66 1    
   128   65   69 1    
   129   65  131 1    
   130   66   67 am   BACKBONE|DICT|INTERRES
   131   66   68 2    
   132   67  132 1    
   133   67  133 1    
   134   69   70 1    
   135   69  134 1    
   136   69  135 1    
   137   70   71 1    
   138   71  136 1    
   139   71  137 1    
@<TRIPOS>SUBSTRUCTURE
     1 UNK         1 GROUP             0       ****    0 ROOT    
