@<TRIPOS>MOLECULE
3R136
137   139    1
SMALL
USER_CHARGES


@<TRIPOS>ATOM
      1 CA         25.9187   19.0952    1.4062 C.3       0 UNK        -0.1979 
      2 C          26.7640   19.9017    0.4311 C.2       0 UNK         0.4864 
      3 O          26.9405   19.4845   -0.7149 O.2       0 UNK        -0.5359 
      4 N          27.2935   21.0478    0.8791 N.am      1 UNK        -0.4318 
      5 CA         28.0706   21.9839    0.0609 C.3       1 UNK         0.0824 
      6 C6         28.8713   22.9679    0.9512 C.3       12 UNK        -0.0944 
      7 S7         30.3441   23.6274    0.1000 S.3       12 UNK        -0.2672 
      8 C8         31.6664   23.2802    1.3026 C.3       12 UNK         0.0333 
      9 C9         31.6432   24.2614    2.4664 C.ar      12 UNK        -0.0807 
     10 C10        32.2214   25.5261    2.3228 C.ar      12 UNK        -0.0894 
     11 C11        32.2355   26.4294    3.3905 C.ar      12 UNK        -0.0804 
     12 C12        31.6545   26.0621    4.6072 C.ar      12 UNK        -0.0824 
     13 C13        31.0422   24.8132    4.7529 C.ar      12 UNK        -0.0762 
     14 C14        31.0535   23.9104    3.6848 C.ar      12 UNK        -0.0782 
     15 C15        30.3361   24.4528    6.0519 C.3       12 UNK         0.0230 
     16 S16        28.5295   24.6641    5.9117 S.3       12 UNK        -0.2608 
     17 C17        28.3726   26.4720    5.6975 C.3       12 UNK        -0.0989 
     18 CA         28.2532   26.8818    4.2075 C.3       5 UNK         0.0716 
     19 N          27.0854   26.2743    3.5545 N.am      5 UNK        -0.4135 
     20 C          26.9081   26.2149    2.2284 C.2       4 UNK         0.5031 
     21 O          27.7291   26.6613    1.4259 O.2       4 UNK        -0.5229 
     22 CA         25.6097   25.5446    1.7339 C.3       4 UNK         0.0329 
     23 CB         24.3711   25.9395    2.5706 C.3       4 UNK        -0.2001 
     24 N          25.3586   25.7668    0.3045 N.am      4 UNK        -0.4303 
     25 C          25.1435   26.9369   -0.3214 C.2       3 UNK         0.5044 
     26 O          25.0663   28.0215    0.2599 O.2       3 UNK        -0.5152 
     27 CA         24.9325   26.8857   -1.8519 C.3       3 UNK         0.0319 
     28 CB         25.4342   28.1606   -2.5655 C.3       3 UNK        -0.2001 
     29 N          25.4579   25.6657   -2.4849 N.am      3 UNK        -0.4354 
     30 C          26.7438   25.3025   -2.6040 C.2       2 UNK         0.4964 
     31 O          27.7035   26.0069   -2.2921 O.2       2 UNK        -0.5047 
     32 CA         27.0026   23.8791   -3.1260 C.3       2 UNK         0.0288 
     33 CB         27.8461   23.9011   -4.4120 C.3       2 UNK        -0.2113 
     34 N          27.6849   23.0760   -2.1087 N.am      2 UNK        -0.4145 
     35 C          27.1519   22.7355   -0.9269 C.2       1 UNK         0.5006 
     36 O          25.9958   23.0179   -0.5945 O.2       1 UNK        -0.5103 
     37 C          28.3201   28.4178    4.0418 C.2       5 UNK         0.5055 
     38 O          29.3696   29.0045    4.3025 O.2       5 UNK        -0.5220 
     39 N          27.2209   29.0381    3.5881 N.am      6 UNK        -0.4450 
     40 CA         27.1121   30.4574    3.2449 C.3       6 UNK         0.0367 
     41 CB         25.6209   30.8339    3.2018 C.3       6 UNK        -0.1929 
     42 C          27.8072   30.8399    1.9207 C.2       6 UNK         0.5070 
     43 O          27.8212   32.0236    1.5815 O.2       6 UNK        -0.5237 
     44 N          28.3611   29.8605    1.1883 N.am      7 UNK        -0.4739 
     45 CA         29.0694   30.0375   -0.0856 C.3       7 UNK         0.0276 
     46 CB         29.4149   28.6529   -0.6538 C.3       7 UNK        -0.1927 
     47 C          30.3362   30.9148   -0.0162 C.2       7 UNK         0.5013 
     48 O          30.7643   31.4255   -1.0525 O.2       7 UNK        -0.5193 
     49 N          30.9068   31.0852    1.1811 N.am      8 UNK        -0.4253 
     50 CA         32.0117   31.9921    1.4773 C.3       8 UNK         0.0242 
     51 CB         33.3532   31.2547    1.3148 C.3       8 UNK        -0.2000 
     52 C          31.8336   32.5149    2.9073 C.2       8 UNK         0.4948 
     53 O          31.0292   31.9648    3.6635 O.2       8 UNK        -0.5275 
     54 N          32.5998   33.5556    3.2623 N.am      9 UNK        -0.4246 
     55 CA         32.6145   34.1496    4.6051 C.3       9 UNK         0.0261 
     56 CB         33.4238   35.4567    4.5807 C.3       9 UNK        -0.1959 
     57 C          33.1584   33.1964    5.6859 C.2       9 UNK         0.5033 
     58 O          32.6816   33.2348    6.8213 O.2       9 UNK        -0.5390 
     59 N          34.1263   32.3543    5.3078 N.am      10 UNK        -0.4215 
     60 CA         34.7149   31.2907    6.1126 C.3       10 UNK         0.0240 
     61 CB         35.6701   31.8756    7.1718 C.3       10 UNK        -0.1982 
     62 C          35.4647   30.3467    5.1667 C.2       10 UNK         0.4970 
     63 O          35.9390   30.7954    4.1194 O.2       10 UNK        -0.4916 
     64 N          35.5760   29.0774    5.5691 N.am      11 UNK        -0.4279 
     65 CA         36.3404   28.0242    4.8774 C.3       11 UNK         0.1003 
     66 C          37.3579   27.3092    5.8159 C.2       11 UNK         0.5709 
     67 N          37.6019   27.7910    7.0301 N.am      11 UNK        -0.7358 
     68 O          37.9606   26.3090    5.4328 O.2       11 UNK        -0.4999 
     69 C69        35.4079   27.0192    4.1447 C.3       12 UNK        -0.0954 
     70 S70        34.5855   27.7566    2.6932 S.3       12 UNK        -0.2268 
     71 C71        32.8438   27.8156    3.2219 C.3       12 UNK         0.0203 
     72 H72        26.3438   18.1005    1.5379 H         1 UNK         0.0888 
     73 H73        25.8594   19.5707    2.3851 H         1 UNK         0.0888 
     74 H74        24.9053   18.9851    1.0210 H         1 UNK         0.0888 
     75 H75        27.0858   21.3522    1.8189 H         1 UNK         0.3017 
     76 H76        28.7771   21.3843   -0.5183 H         1 UNK         0.0873 
     77 H77        28.2552   23.7998    1.2937 H         1 UNK         0.0745 
     78 H78        29.2014   22.4568    1.8561 H         1 UNK         0.0745 
     79 H79        32.6281   23.3500    0.7920 H         1 UNK         0.0705 
     80 H80        31.5880   22.2511    1.6566 H         1 UNK         0.0705 
     81 H81        32.6646   25.8080    1.3774 H         1 UNK         0.1334 
     82 H82        31.6452   26.7640    5.4298 H         1 UNK         0.1417 
     83 H83        30.5870   22.9418    3.8005 H         1 UNK         0.1562 
     84 H84        30.7123   25.0553    6.8802 H         1 UNK         0.0748 
     85 H85        30.5520   23.4146    6.3085 H         1 UNK         0.0748 
     86 H86        29.2293   26.9577    6.1687 H         1 UNK         0.0940 
     87 H87        27.4972   26.8089    6.2557 H         1 UNK         0.0940 
     88 H88        29.1287   26.4994    3.6817 H         1 UNK         0.0703 
     89 H89        26.3968   25.8608    4.1661 H         1 UNK         0.3081 
     90 H90        25.7593   24.4698    1.8448 H         1 UNK         0.0719 
     91 H91        24.4441   25.5758    3.5957 H         1 UNK         0.0809 
     92 H92        23.4613   25.5099    2.1511 H         1 UNK         0.0809 
     93 H93        24.2354   27.0208    2.6139 H         1 UNK         0.0809 
     94 H94        25.4408   24.9323   -0.2672 H         1 UNK         0.2990 
     95 H95        23.8515   26.8448   -1.9932 H         1 UNK         0.0690 
     96 H96        25.2835   28.0998   -3.6432 H         1 UNK         0.0788 
     97 H97        26.4940   28.3391   -2.3824 H         1 UNK         0.0788 
     98 H98        24.8962   29.0416   -2.2135 H         1 UNK         0.0788 
     99 H99        24.7532   24.9980   -2.7684 H         1 UNK         0.2993 
    100 H100       26.0485   23.3979   -3.3524 H         1 UNK         0.0949 
    101 H101       28.8293   24.3428   -4.2435 H         1 UNK         0.0767 
    102 H102       27.9927   22.8960   -4.8082 H         1 UNK         0.0767 
    103 H103       27.3544   24.4874   -5.1895 H         1 UNK         0.0767 
    104 H104       28.6571   22.8636   -2.2802 H         1 UNK         0.3013 
    105 H105       26.4133   28.4696    3.3806 H         1 UNK         0.3121 
    106 H106       27.5916   31.0381    4.0361 H         1 UNK         0.0774 
    107 H107       25.4905   31.8981    3.0005 H         1 UNK         0.0815 
    108 H108       25.0914   30.2876    2.4197 H         1 UNK         0.0815 
    109 H109       25.1292   30.6251    4.1521 H         1 UNK         0.0815 
    110 H110       28.2599   28.9051    1.5094 H         1 UNK         0.2987 
    111 H111       28.3794   30.5282   -0.7752 H         1 UNK         0.0949 
    112 H112       28.5159   28.0557   -0.8054 H         1 UNK         0.0806 
    113 H113       29.9140   28.7341   -1.6203 H         1 UNK         0.0806 
    114 H114       30.0749   28.0953    0.0123 H         1 UNK         0.0806 
    115 H115       30.4558   30.6968    2.0018 H         1 UNK         0.3010 
    116 H116       31.9745   32.8452    0.7961 H         1 UNK         0.0829 
    117 H117       33.4427   30.7988    0.3287 H         1 UNK         0.0813 
    118 H118       34.1960   31.9367    1.4317 H         1 UNK         0.0813 
    119 H119       33.4706   30.4682    2.0595 H         1 UNK         0.0813 
    120 H120       33.2270   33.9577    2.5798 H         1 UNK         0.3038 
    121 H121       31.5837   34.3926    4.8727 H         1 UNK         0.0769 
    122 H122       34.4627   35.2856    4.2959 H         1 UNK         0.0811 
    123 H123       33.4297   35.9288    5.5643 H         1 UNK         0.0811 
    124 H124       32.9966   36.1760    3.8816 H         1 UNK         0.0811 
    125 H125       34.4624   32.3761    4.3526 H         1 UNK         0.3204 
    126 H126       33.9110   30.7371    6.6027 H         1 UNK         0.0748 
    127 H127       36.1335   31.0855    7.7636 H         1 UNK         0.0771 
    128 H128       36.4726   32.4541    6.7122 H         1 UNK         0.0771 
    129 H129       35.1450   32.5295    7.8682 H         1 UNK         0.0771 
    130 H130       35.1509   28.7980    6.4414 H         1 UNK         0.2980 
    131 H131       36.9775   28.4883    4.1224 H         1 UNK         0.0545 
    132 H132       38.2701   27.3161    7.6168 H         1 UNK         0.3459 
    133 H133       37.1673   28.6396    7.3524 H         1 UNK         0.3459 
    134 H134       34.6688   26.6101    4.8349 H         1 UNK         0.0616 
    135 H135       35.9718   26.1640    3.7686 H         1 UNK         0.0616 
    136 H136       32.2657   28.3584    2.4729 H         1 UNK         0.0634 
    137 H137       32.7725   28.3951    4.1438 H         1 UNK         0.0634 
@<TRIPOS>BOND
     1    1    2 1    
     2    1   72 1    
     3    1   73 1    
     4    1   74 1    
     5    2    3 2    
     6    2    4 am   BACKBONE|DICT|INTERRES
     7    4    5 1    
     8    4   75 1    
     9    5    6 1    
    10    5   35 1    
    11    5   76 1    
    12    6    7 1    
    13    6   77 1    
    14    6   78 1    
    15    7    8 1    
    16    8    9 1    
    17    8   79 1    
    18    8   80 1    
    19    9   10 ar   
    20    9   14 ar   
    21   10   11 ar   
    22   10   81 1    
    23   11   12 ar   
    24   11   71 1    
    25   12   13 ar   
    26   12   82 1    
    27   13   14 ar   
    28   13   15 1    
    29   14   83 1    
    30   15   16 1    
    31   15   84 1    
    32   15   85 1    
    33   16   17 1    
    34   17   18 1    
    35   17   86 1    
    36   17   87 1    
    37   18   19 1    
    38   18   37 1    
    39   18   88 1    
    40   19   20 am   BACKBONE|DICT|INTERRES
    41   19   89 1    
    42   20   21 2    
    43   20   22 1    
    44   22   23 1    
    45   22   24 1    
    46   22   90 1    
    47   23   91 1    
    48   23   92 1    
    49   23   93 1    
    50   24   25 am   BACKBONE|DICT|INTERRES
    51   24   94 1    
    52   25   26 2    
    53   25   27 1    
    54   27   28 1    
    55   27   29 1    
    56   27   95 1    
    57   28   96 1    
    58   28   97 1    
    59   28   98 1    
    60   29   30 am   BACKBONE|DICT|INTERRES
    61   29   99 1    
    62   30   31 2    
    63   30   32 1    
    64   32   33 1    
    65   32   34 1    
    66   32  100 1    
    67   33  101 1    
    68   33  102 1    
    69   33  103 1    
    70   34   35 am   BACKBONE|DICT|INTERRES
    71   34  104 1    
    72   35   36 2    
    73   37   38 2    
    74   37   39 am   BACKBONE|DICT|INTERRES
    75   39   40 1    
    76   39  105 1    
    77   40   41 1    
    78   40   42 1    
    79   40  106 1    
    80   41  107 1    
    81   41  108 1    
    82   41  109 1    
    83   42   43 2    
    84   42   44 am   BACKBONE|DICT|INTERRES
    85   44   45 1    
    86   44  110 1    
    87   45   46 1    
    88   45   47 1    
    89   45  111 1    
    90   46  112 1    
    91   46  113 1    
    92   46  114 1    
    93   47   48 2    
    94   47   49 am   BACKBONE|DICT|INTERRES
    95   49   50 1    
    96   49  115 1    
    97   50   51 1    
    98   50   52 1    
    99   50  116 1    
   100   51  117 1    
   101   51  118 1    
   102   51  119 1    
   103   52   53 2    
   104   52   54 am   BACKBONE|DICT|INTERRES
   105   54   55 1    
   106   54  120 1    
   107   55   56 1    
   108   55   57 1    
   109   55  121 1    
   110   56  122 1    
   111   56  123 1    
   112   56  124 1    
   113   57   58 2    
   114   57   59 am   BACKBONE|DICT|INTERRES
   115   59   60 1    
   116   59  125 1    
   117   60   61 1    
   118   60   62 1    
   119   60  126 1    
   120   61  127 1    
   121   61  128 1    
   122   61  129 1    
   123   62   63 2    
   124   62   64 am   BACKBONE|DICT|INTERRES
   125   64   65 1    
   126   64  130 1    
   127   65   66 1    
   128   65   69 1    
   129   65  131 1    
   130   66   67 am   BACKBONE|DICT|INTERRES
   131   66   68 2    
   132   67  132 1    
   133   67  133 1    
   134   69   70 1    
   135   69  134 1    
   136   69  135 1    
   137   70   71 1    
   138   71  136 1    
   139   71  137 1    
@<TRIPOS>SUBSTRUCTURE
     1 UNK         1 GROUP             0       ****    0 ROOT    
