@<TRIPOS>MOLECULE
3R136
137   139    1
SMALL
USER_CHARGES


@<TRIPOS>ATOM
      1 CA         27.1632   18.5445   -2.3644 C.3       0 UNK        -0.1979 
      2 C          28.0682   19.6733   -1.8929 C.2       0 UNK         0.4864 
      3 O          29.1132   19.9105   -2.4999 O.2       0 UNK        -0.5359 
      4 N          27.6765   20.3639   -0.8125 N.am      1 UNK        -0.4318 
      5 CA         28.3972   21.5014   -0.2296 C.3       1 UNK         0.0824 
      6 C6         27.8393   21.8414    1.1791 C.3       12 UNK        -0.0944 
      7 S7         28.6677   23.2368    2.0143 S.3       12 UNK        -0.2672 
      8 C8         29.9273   22.3725    2.9924 C.3       12 UNK         0.0333 
      9 C9         30.8124   23.3746    3.7133 C.ar      12 UNK        -0.0807 
     10 C10        31.9257   23.9172    3.0655 C.ar      12 UNK        -0.0894 
     11 C11        32.7381   24.8503    3.7153 C.ar      12 UNK        -0.0804 
     12 C12        32.4393   25.2282    5.0276 C.ar      12 UNK        -0.0824 
     13 C13        31.3277   24.6932    5.6849 C.ar      12 UNK        -0.0762 
     14 C14        30.5156   23.7674    5.0219 C.ar      12 UNK        -0.0782 
     15 C15        31.0123   25.1104    7.1146 C.3       12 UNK         0.0230 
     16 S16        30.4561   26.8414    7.2191 S.3       12 UNK        -0.2608 
     17 C17        28.9148   26.8046    6.2443 C.3       12 UNK        -0.0989 
     18 CA         29.0677   27.4220    4.8211 C.3       5 UNK         0.0716 
     19 N          28.2381   26.7273    3.8287 N.am      5 UNK        -0.4135 
     20 C          26.9017   26.5972    3.8400 C.2       4 UNK         0.5031 
     21 O          26.1897   26.9591    4.7776 O.2       4 UNK        -0.5229 
     22 CA         26.2457   26.0046    2.5733 C.3       4 UNK         0.0329 
     23 CB         24.8491   26.6054    2.3091 C.3       4 UNK        -0.2001 
     24 N          27.0741   26.1063    1.3620 N.am      4 UNK        -0.4303 
     25 C          27.5827   27.2178    0.8072 C.2       3 UNK         0.5044 
     26 O          27.4357   28.3460    1.2794 O.2       3 UNK        -0.5152 
     27 CA         28.4578   27.0324   -0.4429 C.3       3 UNK         0.0319 
     28 CB         29.9423   27.0151   -0.0395 C.3       3 UNK        -0.2001 
     29 N          28.1557   25.8121   -1.1956 N.am      3 UNK        -0.4354 
     30 C          27.0487   25.5921   -1.9163 C.2       2 UNK         0.4964 
     31 O          26.1501   26.4222   -2.0534 O.2       2 UNK        -0.5047 
     32 CA         26.9001   24.2103   -2.5853 C.3       2 UNK         0.0288 
     33 CB         27.6795   24.1472   -3.9139 C.3       2 UNK        -0.2113 
     34 N          27.2197   23.0664   -1.7140 N.am      2 UNK        -0.4145 
     35 C          28.4014   22.7216   -1.1763 C.2       1 UNK         0.5006 
     36 O          29.4547   23.3294   -1.3778 O.2       1 UNK        -0.5103 
     37 C          28.8686   28.9633    4.8230 C.2       5 UNK         0.5055 
     38 O          29.4518   29.6327    5.6780 O.2       5 UNK        -0.5220 
     39 N          28.0578   29.5094    3.9025 N.am      6 UNK        -0.4450 
     40 CA         27.5412   30.8801    3.9532 C.3       6 UNK         0.0367 
     41 CB         26.0132   30.8165    4.1146 C.3       6 UNK        -0.1929 
     42 C          27.8999   31.7241    2.7220 C.2       6 UNK         0.5070 
     43 O          27.9452   32.9487    2.8441 O.2       6 UNK        -0.5237 
     44 N          28.1470   31.0913    1.5693 N.am      7 UNK        -0.4739 
     45 CA         28.4751   31.7557    0.3095 C.3       7 UNK         0.0276 
     46 CB         27.2520   31.6537   -0.6226 C.3       7 UNK        -0.1927 
     47 C          29.7264   31.1026   -0.3089 C.2       7 UNK         0.5013 
     48 O          29.5754   30.1989   -1.1287 O.2       7 UNK        -0.5193 
     49 N          30.9570   31.5142    0.0322 N.am      8 UNK        -0.4253 
     50 CA         31.3560   32.5056    1.0364 C.3       8 UNK         0.0242 
     51 CB         32.7788   32.9837    0.6992 C.3       8 UNK        -0.2000 
     52 C          31.3181   31.9243    2.4584 C.2       8 UNK         0.4948 
     53 O          31.2830   30.7018    2.6223 O.2       8 UNK        -0.5275 
     54 N          31.3381   32.8166    3.4591 N.am      9 UNK        -0.4246 
     55 CA         31.3345   32.4946    4.8895 C.3       9 UNK         0.0261 
     56 CB         31.3557   33.7966    5.7071 C.3       9 UNK        -0.1959 
     57 C          32.5170   31.5859    5.2613 C.2       9 UNK         0.5033 
     58 O          33.6678   32.0141    5.1412 O.2       9 UNK        -0.5390 
     59 N          32.2084   30.3306    5.6163 N.am      10 UNK        -0.4215 
     60 CA         33.1454   29.2193    5.8342 C.3       10 UNK         0.0240 
     61 CB         33.9115   29.4122    7.1591 C.3       10 UNK        -0.1982 
     62 C          34.0811   28.9438    4.6353 C.2       10 UNK         0.4970 
     63 O          35.2026   28.4740    4.8335 O.2       10 UNK        -0.4916 
     64 N          33.6068   29.2556    3.4212 N.am      11 UNK        -0.4279 
     65 CA         34.3479   29.2301    2.1505 C.3       11 UNK         0.1003 
     66 C          35.4870   30.2908    2.0511 C.2       11 UNK         0.5709 
     67 N          35.5255   31.3126    2.9003 N.am      11 UNK        -0.7358 
     68 O          36.3337   30.2124    1.1641 O.2       11 UNK        -0.4999 
     69 C69        34.7993   27.8063    1.7135 C.3       12 UNK        -0.0954 
     70 S70        33.4188   26.6120    1.7028 S.3       12 UNK        -0.2268 
     71 C71        33.9391   25.4492    3.0026 C.3       12 UNK         0.0203 
     72 H72        27.7045   17.5988   -2.3498 H         1 UNK         0.0888 
     73 H73        26.2798   18.4386   -1.7350 H         1 UNK         0.0888 
     74 H74        26.8314   18.7317   -3.3853 H         1 UNK         0.0888 
     75 H75        26.8157   20.1038   -0.3519 H         1 UNK         0.3017 
     76 H76        29.4384   21.1948   -0.1062 H         1 UNK         0.0873 
     77 H77        26.7770   22.0845    1.1156 H         1 UNK         0.0745 
     78 H78        27.9008   20.9628    1.8235 H         1 UNK         0.0745 
     79 H79        29.4427   21.7061    3.7077 H         1 UNK         0.0705 
     80 H80        30.5310   21.7429    2.3368 H         1 UNK         0.0705 
     81 H81        32.1521   23.6257    2.0487 H         1 UNK         0.1334 
     82 H82        33.0678   25.9436    5.5397 H         1 UNK         0.1417 
     83 H83        29.6510   23.3522    5.5219 H         1 UNK         0.1562 
     84 H84        31.9069   24.9912    7.7275 H         1 UNK         0.0748 
     85 H85        30.2534   24.4614    7.5545 H         1 UNK         0.0748 
     86 H86        28.1281   27.3081    6.8098 H         1 UNK         0.0940 
     87 H87        28.5884   25.7660    6.1753 H         1 UNK         0.0940 
     88 H88        30.0922   27.2582    4.4828 H         1 UNK         0.0703 
     89 H89        28.7322   26.3750    3.0216 H         1 UNK         0.3081 
     90 H90        26.1184   24.9392    2.7702 H         1 UNK         0.0719 
     91 H91        24.8948   27.6861    2.1691 H         1 UNK         0.0809 
     92 H92        24.1730   26.4138    3.1433 H         1 UNK         0.0809 
     93 H93        24.3929   26.1718    1.4193 H         1 UNK         0.0809 
     94 H94        27.3086   25.2258    0.9245 H         1 UNK         0.2990 
     95 H95        28.2806   27.8877   -1.0972 H         1 UNK         0.0690 
     96 H96        30.5894   26.9904   -0.9163 H         1 UNK         0.0788 
     97 H97        30.1864   26.1515    0.5813 H         1 UNK         0.0788 
     98 H98        30.2069   27.9099    0.5268 H         1 UNK         0.0788 
     99 H99        28.8430   25.0618   -1.1641 H         1 UNK         0.2993 
    100 H100       25.8416   24.1020   -2.8287 H         1 UNK         0.0949 
    101 H101       27.5185   23.1964   -4.4221 H         1 UNK         0.0767 
    102 H102       27.3541   24.9370   -4.5924 H         1 UNK         0.0767 
    103 H103       28.7529   24.2705   -3.7673 H         1 UNK         0.0767 
    104 H104       26.4245   22.4948   -1.4646 H         1 UNK         0.3013 
    105 H105       27.6858   28.9192    3.1650 H         1 UNK         0.3121 
    106 H106       27.9453   31.4061    4.8204 H         1 UNK         0.0774 
    107 H107       25.5824   31.8169    4.1750 H         1 UNK         0.0815 
    108 H108       25.5409   30.3058    3.2741 H         1 UNK         0.0815 
    109 H109       25.7337   30.2873    5.0260 H         1 UNK         0.0815 
    110 H110       28.0772   30.0772    1.5252 H         1 UNK         0.2987 
    111 H111       28.6691   32.8180    0.4558 H         1 UNK         0.0949 
    112 H112       26.9525   30.6174   -0.7867 H         1 UNK         0.0806 
    113 H113       26.3952   32.1848   -0.2078 H         1 UNK         0.0806 
    114 H114       27.4653   32.0927   -1.5980 H         1 UNK         0.0806 
    115 H115       31.7250   31.0166   -0.3912 H         1 UNK         0.3010 
    116 H116       30.6929   33.3700    0.9938 H         1 UNK         0.0829 
    117 H117       32.8188   33.4400   -0.2902 H         1 UNK         0.0813 
    118 H118       33.1274   33.7334    1.4109 H         1 UNK         0.0813 
    119 H119       33.4968   32.1636    0.7165 H         1 UNK         0.0813 
    120 H120       31.3881   33.7982    3.2284 H         1 UNK         0.3038 
    121 H121       30.3993   31.9777    5.1067 H         1 UNK         0.0769 
    122 H122       30.4842   34.4153    5.4918 H         1 UNK         0.0811 
    123 H123       32.2488   34.3886    5.5025 H         1 UNK         0.0811 
    124 H124       31.3445   33.5834    6.7768 H         1 UNK         0.0811 
    125 H125       31.2191   30.0814    5.6602 H         1 UNK         0.3204 
    126 H126       32.5315   28.3259    5.9327 H         1 UNK         0.0748 
    127 H127       33.2260   29.5671    7.9923 H         1 UNK         0.0771 
    128 H128       34.5132   28.5342    7.3974 H         1 UNK         0.0771 
    129 H129       34.5854   30.2684    7.1136 H         1 UNK         0.0771 
    130 H130       32.6773   29.6625    3.3483 H         1 UNK         0.2980 
    131 H131       33.6198   29.5615    1.4097 H         1 UNK         0.0545 
    132 H132       36.2637   31.9918    2.8117 H         1 UNK         0.3459 
    133 H133       34.8414   31.4107    3.6437 H         1 UNK         0.3459 
    134 H134       35.2033   27.8345    0.7003 H         1 UNK         0.0616 
    135 H135       35.6116   27.4472    2.3465 H         1 UNK         0.0616 
    136 H136       34.5823   25.9546    3.7238 H         1 UNK         0.0634 
    137 H137       34.5403   24.6564    2.5556 H         1 UNK         0.0634 
@<TRIPOS>BOND
     1    1    2 1    
     2    1   72 1    
     3    1   73 1    
     4    1   74 1    
     5    2    3 2    
     6    2    4 am   BACKBONE|DICT|INTERRES
     7    4    5 1    
     8    4   75 1    
     9    5    6 1    
    10    5   35 1    
    11    5   76 1    
    12    6    7 1    
    13    6   77 1    
    14    6   78 1    
    15    7    8 1    
    16    8    9 1    
    17    8   79 1    
    18    8   80 1    
    19    9   10 ar   
    20    9   14 ar   
    21   10   11 ar   
    22   10   81 1    
    23   11   12 ar   
    24   11   71 1    
    25   12   13 ar   
    26   12   82 1    
    27   13   14 ar   
    28   13   15 1    
    29   14   83 1    
    30   15   16 1    
    31   15   84 1    
    32   15   85 1    
    33   16   17 1    
    34   17   18 1    
    35   17   86 1    
    36   17   87 1    
    37   18   19 1    
    38   18   37 1    
    39   18   88 1    
    40   19   20 am   BACKBONE|DICT|INTERRES
    41   19   89 1    
    42   20   21 2    
    43   20   22 1    
    44   22   23 1    
    45   22   24 1    
    46   22   90 1    
    47   23   91 1    
    48   23   92 1    
    49   23   93 1    
    50   24   25 am   BACKBONE|DICT|INTERRES
    51   24   94 1    
    52   25   26 2    
    53   25   27 1    
    54   27   28 1    
    55   27   29 1    
    56   27   95 1    
    57   28   96 1    
    58   28   97 1    
    59   28   98 1    
    60   29   30 am   BACKBONE|DICT|INTERRES
    61   29   99 1    
    62   30   31 2    
    63   30   32 1    
    64   32   33 1    
    65   32   34 1    
    66   32  100 1    
    67   33  101 1    
    68   33  102 1    
    69   33  103 1    
    70   34   35 am   BACKBONE|DICT|INTERRES
    71   34  104 1    
    72   35   36 2    
    73   37   38 2    
    74   37   39 am   BACKBONE|DICT|INTERRES
    75   39   40 1    
    76   39  105 1    
    77   40   41 1    
    78   40   42 1    
    79   40  106 1    
    80   41  107 1    
    81   41  108 1    
    82   41  109 1    
    83   42   43 2    
    84   42   44 am   BACKBONE|DICT|INTERRES
    85   44   45 1    
    86   44  110 1    
    87   45   46 1    
    88   45   47 1    
    89   45  111 1    
    90   46  112 1    
    91   46  113 1    
    92   46  114 1    
    93   47   48 2    
    94   47   49 am   BACKBONE|DICT|INTERRES
    95   49   50 1    
    96   49  115 1    
    97   50   51 1    
    98   50   52 1    
    99   50  116 1    
   100   51  117 1    
   101   51  118 1    
   102   51  119 1    
   103   52   53 2    
   104   52   54 am   BACKBONE|DICT|INTERRES
   105   54   55 1    
   106   54  120 1    
   107   55   56 1    
   108   55   57 1    
   109   55  121 1    
   110   56  122 1    
   111   56  123 1    
   112   56  124 1    
   113   57   58 2    
   114   57   59 am   BACKBONE|DICT|INTERRES
   115   59   60 1    
   116   59  125 1    
   117   60   61 1    
   118   60   62 1    
   119   60  126 1    
   120   61  127 1    
   121   61  128 1    
   122   61  129 1    
   123   62   63 2    
   124   62   64 am   BACKBONE|DICT|INTERRES
   125   64   65 1    
   126   64  130 1    
   127   65   66 1    
   128   65   69 1    
   129   65  131 1    
   130   66   67 am   BACKBONE|DICT|INTERRES
   131   66   68 2    
   132   67  132 1    
   133   67  133 1    
   134   69   70 1    
   135   69  134 1    
   136   69  135 1    
   137   70   71 1    
   138   71  136 1    
   139   71  137 1    
@<TRIPOS>SUBSTRUCTURE
     1 UNK         1 GROUP             0       ****    0 ROOT    
