@<TRIPOS>MOLECULE
3R136
137   139    1
SMALL
USER_CHARGES


@<TRIPOS>ATOM
      1 CA         29.8534   18.8143    4.7928 C.3       0 UNK        -0.1979 
      2 C          29.4345   19.0719    3.3527 C.2       0 UNK         0.4864 
      3 O          28.9651   18.1532    2.6788 O.2       0 UNK        -0.5359 
      4 N          29.6082   20.3108    2.8743 N.am      1 UNK        -0.4318 
      5 CA         29.1987   20.7537    1.5391 C.3       1 UNK         0.0824 
      6 C6         29.8977   22.0833    1.1602 C.3       12 UNK        -0.0944 
      7 S7         29.7075   22.5031   -0.6081 S.3       12 UNK        -0.2672 
      8 C8         31.3507   23.1466   -1.0373 C.3       12 UNK         0.0333 
      9 C9         31.5767   24.5307   -0.4500 C.ar      12 UNK        -0.0807 
     10 C10        32.1962   24.6717    0.7928 C.ar      12 UNK        -0.0894 
     11 C11        32.4338   25.9388    1.3310 C.ar      12 UNK        -0.0804 
     12 C12        32.0553   27.0767    0.6092 C.ar      12 UNK        -0.0824 
     13 C13        31.4556   26.9478   -0.6489 C.ar      12 UNK        -0.0762 
     14 C14        31.2050   25.6724   -1.1653 C.ar      12 UNK        -0.0782 
     15 C15        31.1473   28.1749   -1.4952 C.3       12 UNK         0.0230 
     16 S16        29.3982   28.6621   -1.4004 S.3       12 UNK        -0.2608 
     17 C17        29.3791   29.7103    0.0923 C.3       12 UNK        -0.0989 
     18 CA         28.3233   29.2401    1.1184 C.3       5 UNK         0.0716 
     19 N          28.5586   27.8582    1.5478 N.am      5 UNK        -0.4135 
     20 C          27.7945   27.1531    2.3916 C.2       4 UNK         0.5031 
     21 O          26.9206   27.6364    3.1134 O.2       4 UNK        -0.5229 
     22 CA         27.9900   25.6248    2.3241 C.3       4 UNK         0.0329 
     23 CB         27.2823   24.8814    3.4747 C.3       4 UNK        -0.2001 
     24 N          27.5721   25.0668    1.0278 N.am      4 UNK        -0.4303 
     25 C          26.4010   25.2531    0.3914 C.2       3 UNK         0.5044 
     26 O          25.4688   25.9372    0.8130 O.2       3 UNK        -0.5152 
     27 CA         26.2356   24.5237   -0.9495 C.3       3 UNK         0.0319 
     28 CB         27.2498   25.0216   -1.9954 C.3       3 UNK        -0.2001 
     29 N          26.3485   23.0749   -0.7745 N.am      3 UNK        -0.4354 
     30 C          25.3762   22.2957   -0.2734 C.2       2 UNK         0.4964 
     31 O          24.2523   22.7042    0.0203 O.2       2 UNK        -0.5047 
     32 CA         25.7037   20.8053   -0.0661 C.3       2 UNK         0.0288 
     33 CB         25.3420   19.9934   -1.3207 C.3       2 UNK        -0.2113 
     34 N          27.1103   20.5777    0.2702 N.am      2 UNK        -0.4145 
     35 C          27.6629   20.8825    1.4525 C.2       1 UNK         0.5006 
     36 O          27.0239   21.2953    2.4240 O.2       1 UNK        -0.5103 
     37 C          28.1742   30.2827    2.2440 C.2       5 UNK         0.5055 
     38 O          27.3066   31.1500    2.1257 O.2       5 UNK        -0.5220 
     39 N          29.0333   30.2250    3.2748 N.am      6 UNK        -0.4450 
     40 CA         29.1406   31.1517    4.4162 C.3       6 UNK         0.0367 
     41 CB         27.8387   31.2170    5.2376 C.3       6 UNK        -0.1929 
     42 C          29.6440   32.5553    4.0336 C.2       6 UNK         0.5070 
     43 O          30.6170   33.0302    4.6192 O.2       6 UNK        -0.5237 
     44 N          29.0283   33.1699    3.0148 N.am      7 UNK        -0.4739 
     45 CA         29.3986   34.4611    2.4192 C.3       7 UNK         0.0276 
     46 CB         28.3301   34.8578    1.3882 C.3       7 UNK        -0.1927 
     47 C          30.7996   34.4772    1.7764 C.2       7 UNK         0.5013 
     48 O          31.3703   35.5518    1.5911 O.2       7 UNK        -0.5193 
     49 N          31.3419   33.2858    1.4896 N.am      8 UNK        -0.4253 
     50 CA         32.7230   33.0464    1.0652 C.3       8 UNK         0.0242 
     51 CB         32.7987   31.6421    0.4379 C.3       8 UNK        -0.2000 
     52 C          33.7570   33.1851    2.2050 C.2       8 UNK         0.4948 
     53 O          34.9474   33.0128    1.9417 O.2       8 UNK        -0.5275 
     54 N          33.2973   33.4550    3.4391 N.am      9 UNK        -0.4246 
     55 CA         34.0569   33.5020    4.6954 C.3       9 UNK         0.0261 
     56 CB         35.1789   34.5624    4.6558 C.3       9 UNK        -0.1959 
     57 C          34.5443   32.1100    5.1412 C.2       9 UNK         0.5033 
     58 O          35.5732   31.9998    5.8112 O.2       9 UNK        -0.5390 
     59 N          33.7800   31.0745    4.7781 N.am      10 UNK        -0.4215 
     60 CA         33.9912   29.6751    5.1190 C.3       10 UNK         0.0240 
     61 CB         35.0707   29.0612    4.2086 C.3       10 UNK        -0.1982 
     62 C          32.6527   28.9515    4.9508 C.2       10 UNK         0.4970 
     63 O          31.8550   29.3465    4.0946 O.2       10 UNK        -0.4916 
     64 N          32.4501   27.8963    5.7480 N.am      11 UNK        -0.4279 
     65 CA         31.2390   27.0549    5.7777 C.3       11 UNK         0.1003 
     66 C          29.9666   27.7720    6.3240 C.2       11 UNK         0.5709 
     67 N          30.0990   28.8573    7.0777 N.am      11 UNK        -0.7358 
     68 O          28.8466   27.3225    6.0993 O.2       11 UNK        -0.4999 
     69 C69        30.9876   26.2917    4.4443 C.3       12 UNK        -0.0954 
     70 S70        32.3631   25.1760    4.0173 S.3       12 UNK        -0.2268 
     71 C71        33.1749   26.0703    2.6535 C.3       12 UNK         0.0203 
     72 H72        28.9960   18.4852    5.3792 H         1 UNK         0.0888 
     73 H73        30.6121   18.0330    4.8292 H         1 UNK         0.0888 
     74 H74        30.2638   19.7072    5.2643 H         1 UNK         0.0888 
     75 H75        29.9674   21.0302    3.4850 H         1 UNK         0.3017 
     76 H76        29.5206   19.9859    0.8315 H         1 UNK         0.0873 
     77 H77        29.5334   22.9119    1.7702 H         1 UNK         0.0745 
     78 H78        30.9627   21.9965    1.3785 H         1 UNK         0.0745 
     79 H79        32.1220   22.4518   -0.7012 H         1 UNK         0.0705 
     80 H80        31.4364   23.1893   -2.1242 H         1 UNK         0.0705 
     81 H81        32.5110   23.7941    1.3402 H         1 UNK         0.1334 
     82 H82        32.2666   28.0600    1.0075 H         1 UNK         0.1417 
     83 H83        30.7461   25.5693   -2.1396 H         1 UNK         0.1562 
     84 H84        31.3858   27.9585   -2.5377 H         1 UNK         0.0748 
     85 H85        31.7881   29.0127   -1.2160 H         1 UNK         0.0748 
     86 H86        29.1733   30.7324   -0.2339 H         1 UNK         0.0940 
     87 H87        30.3690   29.7310    0.5502 H         1 UNK         0.0940 
     88 H88        27.3589   29.2209    0.6057 H         1 UNK         0.0703 
     89 H89        29.2289   27.3525    0.9862 H         1 UNK         0.3081 
     90 H90        29.0604   25.4343    2.4110 H         1 UNK         0.0719 
     91 H91        27.5943   25.2731    4.4438 H         1 UNK         0.0809 
     92 H92        26.1982   24.9845    3.4163 H         1 UNK         0.0809 
     93 H93        27.5177   23.8175    3.4628 H         1 UNK         0.0809 
     94 H94        28.2601   24.4908    0.5631 H         1 UNK         0.2990 
     95 H95        25.2371   24.7486   -1.3316 H         1 UNK         0.0690 
     96 H96        27.0852   24.5457   -2.9622 H         1 UNK         0.0788 
     97 H97        28.2809   24.8296   -1.7017 H         1 UNK         0.0788 
     98 H98        27.1544   26.0981   -2.1451 H         1 UNK         0.0788 
     99 H99        27.2464   22.6584   -0.9790 H         1 UNK         0.2993 
    100 H100       25.0899   20.4457    0.7631 H         1 UNK         0.0949 
    101 H101       24.2906   20.1257   -1.5803 H         1 UNK         0.0767 
    102 H102       25.9322   20.2989   -2.1857 H         1 UNK         0.0767 
    103 H103       25.5032   18.9267   -1.1628 H         1 UNK         0.0767 
    104 H104       27.7073   20.2466   -0.4745 H         1 UNK         0.3013 
    105 H105       29.7449   29.5039    3.2625 H         1 UNK         0.3121 
    106 H106       29.9014   30.7275    5.0699 H         1 UNK         0.0774 
    107 H107       27.0210   31.6769    4.6826 H         1 UNK         0.0815 
    108 H108       27.9831   31.8050    6.1447 H         1 UNK         0.0815 
    109 H109       27.5173   30.2210    5.5429 H         1 UNK         0.0815 
    110 H110       28.2460   32.6729    2.5924 H         1 UNK         0.2987 
    111 H111       29.4035   35.2055    3.2183 H         1 UNK         0.0949 
    112 H112       28.2626   34.1311    0.5775 H         1 UNK         0.0806 
    113 H113       27.3452   34.9386    1.8487 H         1 UNK         0.0806 
    114 H114       28.5571   35.8267    0.9410 H         1 UNK         0.0806 
    115 H115       30.7807   32.4699    1.6810 H         1 UNK         0.3010 
    116 H116       32.9819   33.7826    0.3012 H         1 UNK         0.0829 
    117 H117       33.7957   31.4430    0.0422 H         1 UNK         0.0813 
    118 H118       32.5789   30.8614    1.1675 H         1 UNK         0.0813 
    119 H119       32.0998   31.5388   -0.3925 H         1 UNK         0.0813 
    120 H120       32.2935   33.5445    3.5608 H         1 UNK         0.3038 
    121 H121       33.3421   33.8192    5.4563 H         1 UNK         0.0769 
    122 H122       35.9929   34.2709    3.9918 H         1 UNK         0.0811 
    123 H123       35.6101   34.7086    5.6468 H         1 UNK         0.0811 
    124 H124       34.8009   35.5287    4.3220 H         1 UNK         0.0811 
    125 H125       32.9257   31.2461    4.2623 H         1 UNK         0.3204 
    126 H126       34.3042   29.6061    6.1630 H         1 UNK         0.0748 
    127 H127       35.2179   28.0034    4.4305 H         1 UNK         0.0771 
    128 H128       34.8011   29.1433    3.1547 H         1 UNK         0.0771 
    129 H129       36.0328   29.5555    4.3443 H         1 UNK         0.0771 
    130 H130       33.1662   27.6432    6.4133 H         1 UNK         0.2980 
    131 H131       31.4451   26.2966    6.5338 H         1 UNK         0.0545 
    132 H132       29.2733   29.2972    7.4502 H         1 UNK         0.3459 
    133 H133       31.0108   29.2194    7.3036 H         1 UNK         0.3459 
    134 H134       30.1031   25.6608    4.5355 H         1 UNK         0.0616 
    135 H135       30.7888   26.9794    3.6218 H         1 UNK         0.0616 
    136 H136       33.2990   27.1168    2.9233 H         1 UNK         0.0634 
    137 H137       34.1806   25.6675    2.5278 H         1 UNK         0.0634 
@<TRIPOS>BOND
     1    1    2 1    
     2    1   72 1    
     3    1   73 1    
     4    1   74 1    
     5    2    3 2    
     6    2    4 am   BACKBONE|DICT|INTERRES
     7    4    5 1    
     8    4   75 1    
     9    5    6 1    
    10    5   35 1    
    11    5   76 1    
    12    6    7 1    
    13    6   77 1    
    14    6   78 1    
    15    7    8 1    
    16    8    9 1    
    17    8   79 1    
    18    8   80 1    
    19    9   10 ar   
    20    9   14 ar   
    21   10   11 ar   
    22   10   81 1    
    23   11   12 ar   
    24   11   71 1    
    25   12   13 ar   
    26   12   82 1    
    27   13   14 ar   
    28   13   15 1    
    29   14   83 1    
    30   15   16 1    
    31   15   84 1    
    32   15   85 1    
    33   16   17 1    
    34   17   18 1    
    35   17   86 1    
    36   17   87 1    
    37   18   19 1    
    38   18   37 1    
    39   18   88 1    
    40   19   20 am   BACKBONE|DICT|INTERRES
    41   19   89 1    
    42   20   21 2    
    43   20   22 1    
    44   22   23 1    
    45   22   24 1    
    46   22   90 1    
    47   23   91 1    
    48   23   92 1    
    49   23   93 1    
    50   24   25 am   BACKBONE|DICT|INTERRES
    51   24   94 1    
    52   25   26 2    
    53   25   27 1    
    54   27   28 1    
    55   27   29 1    
    56   27   95 1    
    57   28   96 1    
    58   28   97 1    
    59   28   98 1    
    60   29   30 am   BACKBONE|DICT|INTERRES
    61   29   99 1    
    62   30   31 2    
    63   30   32 1    
    64   32   33 1    
    65   32   34 1    
    66   32  100 1    
    67   33  101 1    
    68   33  102 1    
    69   33  103 1    
    70   34   35 am   BACKBONE|DICT|INTERRES
    71   34  104 1    
    72   35   36 2    
    73   37   38 2    
    74   37   39 am   BACKBONE|DICT|INTERRES
    75   39   40 1    
    76   39  105 1    
    77   40   41 1    
    78   40   42 1    
    79   40  106 1    
    80   41  107 1    
    81   41  108 1    
    82   41  109 1    
    83   42   43 2    
    84   42   44 am   BACKBONE|DICT|INTERRES
    85   44   45 1    
    86   44  110 1    
    87   45   46 1    
    88   45   47 1    
    89   45  111 1    
    90   46  112 1    
    91   46  113 1    
    92   46  114 1    
    93   47   48 2    
    94   47   49 am   BACKBONE|DICT|INTERRES
    95   49   50 1    
    96   49  115 1    
    97   50   51 1    
    98   50   52 1    
    99   50  116 1    
   100   51  117 1    
   101   51  118 1    
   102   51  119 1    
   103   52   53 2    
   104   52   54 am   BACKBONE|DICT|INTERRES
   105   54   55 1    
   106   54  120 1    
   107   55   56 1    
   108   55   57 1    
   109   55  121 1    
   110   56  122 1    
   111   56  123 1    
   112   56  124 1    
   113   57   58 2    
   114   57   59 am   BACKBONE|DICT|INTERRES
   115   59   60 1    
   116   59  125 1    
   117   60   61 1    
   118   60   62 1    
   119   60  126 1    
   120   61  127 1    
   121   61  128 1    
   122   61  129 1    
   123   62   63 2    
   124   62   64 am   BACKBONE|DICT|INTERRES
   125   64   65 1    
   126   64  130 1    
   127   65   66 1    
   128   65   69 1    
   129   65  131 1    
   130   66   67 am   BACKBONE|DICT|INTERRES
   131   66   68 2    
   132   67  132 1    
   133   67  133 1    
   134   69   70 1    
   135   69  134 1    
   136   69  135 1    
   137   70   71 1    
   138   71  136 1    
   139   71  137 1    
@<TRIPOS>SUBSTRUCTURE
     1 UNK         1 GROUP             0       ****    0 ROOT    
