@<TRIPOS>MOLECULE
3R136
137   139    1
SMALL
USER_CHARGES


@<TRIPOS>ATOM
      1 CA         28.3717   19.2398    1.6167 C.3       0 UNK        -0.1979 
      2 C          28.2175   19.9291    0.2688 C.2       0 UNK         0.4864 
      3 O          27.8889   19.2680   -0.7170 O.2       0 UNK        -0.5359 
      4 N          28.4430   21.2486    0.2258 N.am      1 UNK        -0.4318 
      5 CA         28.3687   22.0843   -0.9812 C.3       1 UNK         0.0824 
      6 C6         29.7093   22.8087   -1.2899 C.3       12 UNK        -0.0944 
      7 S7         31.1362   21.6801   -1.4665 S.3       12 UNK        -0.2672 
      8 C8         32.5253   22.7210   -0.8741 C.3       12 UNK         0.0333 
      9 C9         32.5134   23.0907    0.6132 C.ar      12 UNK        -0.0807 
     10 C10        33.4323   24.0360    1.0834 C.ar      12 UNK        -0.0894 
     11 C11        33.4417   24.4263    2.4281 C.ar      12 UNK        -0.0804 
     12 C12        32.5049   23.8746    3.3095 C.ar      12 UNK        -0.0824 
     13 C13        31.5675   22.9428    2.8507 C.ar      12 UNK        -0.0762 
     14 C14        31.6099   22.5274    1.5195 C.ar      12 UNK        -0.0782 
     15 C15        30.4774   22.3947    3.7620 C.3       12 UNK         0.0230 
     16 S16        28.8140   22.8500    3.1497 S.3       12 UNK        -0.2608 
     17 C17        28.5394   24.4618    3.9520 C.3       12 UNK        -0.0989 
     18 CA         29.2953   25.6295    3.2726 C.3       5 UNK         0.0716 
     19 N          28.8607   25.9102    1.8969 N.am      5 UNK        -0.4135 
     20 C          29.6297   26.5657    1.0080 C.2       4 UNK         0.5031 
     21 O          30.8225   26.7901    1.1918 O.2       4 UNK        -0.5229 
     22 CA         28.9805   27.1451   -0.2656 C.3       4 UNK         0.0329 
     23 CB         29.5978   26.5764   -1.5515 C.3       4 UNK        -0.2001 
     24 N          27.5235   27.0218   -0.3040 N.am      4 UNK        -0.4303 
     25 C          26.6964   27.7564    0.4537 C.2       3 UNK         0.5044 
     26 O          27.0907   28.6363    1.2216 O.2       3 UNK        -0.5152 
     27 CA         25.1954   27.4164    0.4030 C.3       3 UNK         0.0319 
     28 CB         24.4734   28.3341   -0.5954 C.3       3 UNK        -0.2001 
     29 N          24.9069   26.0150    0.0736 N.am      3 UNK        -0.4354 
     30 C          25.3393   24.9514    0.7669 C.2       2 UNK         0.4964 
     31 O          26.0371   25.0411    1.7778 O.2       2 UNK        -0.5047 
     32 CA         24.9773   23.5510    0.2355 C.3       2 UNK         0.0288 
     33 CB         24.0330   23.5567   -0.9896 C.3       2 UNK        -0.2113 
     34 N          26.1819   22.7591   -0.0453 N.am      2 UNK        -0.4145 
     35 C          27.1837   23.0746   -0.8846 C.2       1 UNK         0.5006 
     36 O          27.1937   24.1044   -1.5626 O.2       1 UNK        -0.5103 
     37 C          29.2676   26.8868    4.1665 C.2       5 UNK         0.5055 
     38 O          29.9074   26.8688    5.2177 O.2       5 UNK        -0.5220 
     39 N          28.5664   27.9512    3.7492 N.am      6 UNK        -0.4450 
     40 CA         28.7105   29.2898    4.3181 C.3       6 UNK         0.0367 
     41 CB         27.3403   29.9818    4.4149 C.3       6 UNK        -0.1929 
     42 C          29.6832   30.0990    3.4517 C.2       6 UNK         0.5070 
     43 O          30.6668   30.6243    3.9785 O.2       6 UNK        -0.5237 
     44 N          29.3967   30.1609    2.1382 N.am      7 UNK        -0.4739 
     45 CA         30.1320   30.9083    1.1065 C.3       7 UNK         0.0276 
     46 CB         31.4811   30.2273    0.7984 C.3       7 UNK        -0.1927 
     47 C          30.2791   32.3920    1.4888 C.2       7 UNK         0.5013 
     48 O          31.3984   32.8991    1.6039 O.2       7 UNK        -0.5193 
     49 N          29.1309   33.0204    1.7854 N.am      8 UNK        -0.4253 
     50 CA         28.9562   34.3105    2.4646 C.3       8 UNK         0.0242 
     51 CB         29.5589   35.4844    1.6632 C.3       8 UNK        -0.2000 
     52 C          29.4702   34.2486    3.9136 C.2       8 UNK         0.4948 
     53 O          28.6619   34.2212    4.8423 O.2       8 UNK        -0.5275 
     54 N          30.7958   34.1819    4.0680 N.am      9 UNK        -0.4246 
     55 CA         31.4978   33.9478    5.3279 C.3       9 UNK         0.0261 
     56 CB         31.6595   35.2802    6.0875 C.3       9 UNK        -0.1959 
     57 C          32.8492   33.2342    5.1246 C.2       9 UNK         0.5033 
     58 O          33.6212   33.1593    6.0822 O.2       9 UNK        -0.5390 
     59 N          33.1489   32.7440    3.9090 N.am      10 UNK        -0.4215 
     60 CA         34.4387   32.1258    3.5830 C.3       10 UNK         0.0240 
     61 CB         34.6624   32.1497    2.0628 C.3       10 UNK        -0.1982 
     62 C          34.5977   30.7015    4.1420 C.2       10 UNK         0.4970 
     63 O          35.7213   30.3244    4.4788 O.2       10 UNK        -0.4916 
     64 N          33.4939   29.9509    4.2425 N.am      11 UNK        -0.4279 
     65 CA         33.4417   28.6168    4.8631 C.3       11 UNK         0.1003 
     66 C          32.6735   28.6262    6.2137 C.2       11 UNK         0.5709 
     67 N          31.7885   29.5824    6.4725 N.am      11 UNK        -0.7358 
     68 O          32.9171   27.7694    7.0602 O.2       11 UNK        -0.4999 
     69 C69        32.8655   27.5537    3.8922 C.3       12 UNK        -0.0954 
     70 S70        34.0188   27.1549    2.5366 S.3       12 UNK        -0.2268 
     71 C71        34.4767   25.4322    2.9213 C.3       12 UNK         0.0203 
     72 H72        29.1069   18.4388    1.5448 H         1 UNK         0.0888 
     73 H73        28.6992   19.9273    2.3954 H         1 UNK         0.0888 
     74 H74        27.4223   18.8041    1.9266 H         1 UNK         0.0888 
     75 H75        28.6634   21.7439    1.0817 H         1 UNK         0.3017 
     76 H76        28.1422   21.4594   -1.8472 H         1 UNK         0.0873 
     77 H77        29.6316   23.3546   -2.2313 H         1 UNK         0.0745 
     78 H78        29.9242   23.5488   -0.5172 H         1 UNK         0.0745 
     79 H79        33.4565   22.1950   -1.0880 H         1 UNK         0.0705 
     80 H80        32.5438   23.6356   -1.4690 H         1 UNK         0.0705 
     81 H81        34.1442   24.4765    0.3986 H         1 UNK         0.1334 
     82 H82        32.4904   24.1877    4.3444 H         1 UNK         0.1417 
     83 H83        30.9009   21.7840    1.1929 H         1 UNK         0.1562 
     84 H84        30.6080   22.7387    4.7890 H         1 UNK         0.0748 
     85 H85        30.5570   21.3071    3.7908 H         1 UNK         0.0748 
     86 H86        28.8342   24.3628    4.9989 H         1 UNK         0.0940 
     87 H87        27.4668   24.6609    3.9674 H         1 UNK         0.0940 
     88 H88        30.3456   25.3523    3.2276 H         1 UNK         0.0703 
     89 H89        27.8881   25.7074    1.6863 H         1 UNK         0.3081 
     90 H90        29.2159   28.2110   -0.2571 H         1 UNK         0.0719 
     91 H91        30.6871   26.6324   -1.5263 H         1 UNK         0.0809 
     92 H92        29.3281   25.5366   -1.7023 H         1 UNK         0.0809 
     93 H93        29.2660   27.1345   -2.4270 H         1 UNK         0.0809 
     94 H94        27.1418   26.2770   -0.8757 H         1 UNK         0.2990 
     95 H95        24.7897   27.6074    1.3986 H         1 UNK         0.0690 
     96 H96        24.6516   29.3844   -0.3593 H         1 UNK         0.0788 
     97 H97        23.3948   28.1779   -0.5709 H         1 UNK         0.0788 
     98 H98        24.8152   28.1672   -1.6178 H         1 UNK         0.0788 
     99 H99        24.3586   25.8477   -0.7578 H         1 UNK         0.2993 
    100 H100       24.4572   23.0477    1.0521 H         1 UNK         0.0949 
    101 H101       23.7721   22.5393   -1.2818 H         1 UNK         0.0767 
    102 H102       23.0964   24.0697   -0.7662 H         1 UNK         0.0767 
    103 H103       24.4814   24.0394   -1.8588 H         1 UNK         0.0767 
    104 H104       26.2773   21.9074    0.4890 H         1 UNK         0.3013 
    105 H105       28.0593   27.8933    2.8737 H         1 UNK         0.3121 
    106 H106       29.1238   29.2356    5.3273 H         1 UNK         0.0774 
    107 H107       27.4436   30.9878    4.8245 H         1 UNK         0.0815 
    108 H108       26.8508   30.0747    3.4455 H         1 UNK         0.0815 
    109 H109       26.6690   29.4315    5.0740 H         1 UNK         0.0815 
    110 H110       28.5506   29.6962    1.8166 H         1 UNK         0.2987 
    111 H111       29.5314   30.8814    0.1959 H         1 UNK         0.0949 
    112 H112       32.0957   30.1175    1.6908 H         1 UNK         0.0806 
    113 H113       31.3377   29.2339    0.3778 H         1 UNK         0.0806 
    114 H114       32.0544   30.7997    0.0684 H         1 UNK         0.0806 
    115 H115       28.2821   32.4813    1.6844 H         1 UNK         0.3010 
    116 H116       27.8793   34.4787    2.5210 H         1 UNK         0.0829 
    117 H117       30.6370   35.3979    1.5297 H         1 UNK         0.0813 
    118 H118       29.1091   35.5534    0.6729 H         1 UNK         0.0813 
    119 H119       29.3722   36.4327    2.1688 H         1 UNK         0.0813 
    120 H120       31.3543   34.1682    3.2226 H         1 UNK         0.3038 
    121 H121       30.8948   33.2715    5.9378 H         1 UNK         0.0769 
    122 H122       32.2658   35.9900    5.5239 H         1 UNK         0.0811 
    123 H123       32.1434   35.1294    7.0533 H         1 UNK         0.0811 
    124 H124       30.6941   35.7464    6.2847 H         1 UNK         0.0811 
    125 H125       32.4614   32.7647    3.1599 H         1 UNK         0.3204 
    126 H126       35.2251   32.7354    4.0340 H         1 UNK         0.0748 
    127 H127       35.6418   31.7431    1.8067 H         1 UNK         0.0771 
    128 H128       33.9180   31.5591    1.5321 H         1 UNK         0.0771 
    129 H129       34.6210   33.1666    1.6720 H         1 UNK         0.0771 
    130 H130       32.5963   30.3433    3.9760 H         1 UNK         0.2980 
    131 H131       34.4521   28.2951    5.1219 H         1 UNK         0.0545 
    132 H132       31.3131   29.5816    7.3600 H         1 UNK         0.3459 
    133 H133       31.5120   30.2294    5.7454 H         1 UNK         0.3459 
    134 H134       31.9347   27.9108    3.4506 H         1 UNK         0.0616 
    135 H135       32.6150   26.6338    4.4220 H         1 UNK         0.0616 
    136 H136       35.4359   25.2179    2.4480 H         1 UNK         0.0634 
    137 H137       34.6418   25.3262    3.9947 H         1 UNK         0.0634 
@<TRIPOS>BOND
     1    1    2 1    
     2    1   72 1    
     3    1   73 1    
     4    1   74 1    
     5    2    3 2    
     6    2    4 am   BACKBONE|DICT|INTERRES
     7    4    5 1    
     8    4   75 1    
     9    5    6 1    
    10    5   35 1    
    11    5   76 1    
    12    6    7 1    
    13    6   77 1    
    14    6   78 1    
    15    7    8 1    
    16    8    9 1    
    17    8   79 1    
    18    8   80 1    
    19    9   10 ar   
    20    9   14 ar   
    21   10   11 ar   
    22   10   81 1    
    23   11   12 ar   
    24   11   71 1    
    25   12   13 ar   
    26   12   82 1    
    27   13   14 ar   
    28   13   15 1    
    29   14   83 1    
    30   15   16 1    
    31   15   84 1    
    32   15   85 1    
    33   16   17 1    
    34   17   18 1    
    35   17   86 1    
    36   17   87 1    
    37   18   19 1    
    38   18   37 1    
    39   18   88 1    
    40   19   20 am   BACKBONE|DICT|INTERRES
    41   19   89 1    
    42   20   21 2    
    43   20   22 1    
    44   22   23 1    
    45   22   24 1    
    46   22   90 1    
    47   23   91 1    
    48   23   92 1    
    49   23   93 1    
    50   24   25 am   BACKBONE|DICT|INTERRES
    51   24   94 1    
    52   25   26 2    
    53   25   27 1    
    54   27   28 1    
    55   27   29 1    
    56   27   95 1    
    57   28   96 1    
    58   28   97 1    
    59   28   98 1    
    60   29   30 am   BACKBONE|DICT|INTERRES
    61   29   99 1    
    62   30   31 2    
    63   30   32 1    
    64   32   33 1    
    65   32   34 1    
    66   32  100 1    
    67   33  101 1    
    68   33  102 1    
    69   33  103 1    
    70   34   35 am   BACKBONE|DICT|INTERRES
    71   34  104 1    
    72   35   36 2    
    73   37   38 2    
    74   37   39 am   BACKBONE|DICT|INTERRES
    75   39   40 1    
    76   39  105 1    
    77   40   41 1    
    78   40   42 1    
    79   40  106 1    
    80   41  107 1    
    81   41  108 1    
    82   41  109 1    
    83   42   43 2    
    84   42   44 am   BACKBONE|DICT|INTERRES
    85   44   45 1    
    86   44  110 1    
    87   45   46 1    
    88   45   47 1    
    89   45  111 1    
    90   46  112 1    
    91   46  113 1    
    92   46  114 1    
    93   47   48 2    
    94   47   49 am   BACKBONE|DICT|INTERRES
    95   49   50 1    
    96   49  115 1    
    97   50   51 1    
    98   50   52 1    
    99   50  116 1    
   100   51  117 1    
   101   51  118 1    
   102   51  119 1    
   103   52   53 2    
   104   52   54 am   BACKBONE|DICT|INTERRES
   105   54   55 1    
   106   54  120 1    
   107   55   56 1    
   108   55   57 1    
   109   55  121 1    
   110   56  122 1    
   111   56  123 1    
   112   56  124 1    
   113   57   58 2    
   114   57   59 am   BACKBONE|DICT|INTERRES
   115   59   60 1    
   116   59  125 1    
   117   60   61 1    
   118   60   62 1    
   119   60  126 1    
   120   61  127 1    
   121   61  128 1    
   122   61  129 1    
   123   62   63 2    
   124   62   64 am   BACKBONE|DICT|INTERRES
   125   64   65 1    
   126   64  130 1    
   127   65   66 1    
   128   65   69 1    
   129   65  131 1    
   130   66   67 am   BACKBONE|DICT|INTERRES
   131   66   68 2    
   132   67  132 1    
   133   67  133 1    
   134   69   70 1    
   135   69  134 1    
   136   69  135 1    
   137   70   71 1    
   138   71  136 1    
   139   71  137 1    
@<TRIPOS>SUBSTRUCTURE
     1 UNK         1 GROUP             0       ****    0 ROOT    
