@<TRIPOS>MOLECULE
3R136
137   139    1
SMALL
USER_CHARGES


@<TRIPOS>ATOM
      1 CA         27.6903   22.0761    3.3810 C.3       0 UNK        -0.1979 
      2 C          27.8359   22.3845    1.9000 C.2       0 UNK         0.4864 
      3 O          27.8462   23.5539    1.5114 O.2       0 UNK        -0.5359 
      4 N          27.9396   21.3364    1.0704 N.am      1 UNK        -0.4318 
      5 CA         27.9838   21.3965   -0.3981 C.3       1 UNK         0.0824 
      6 C6         29.2605   22.0944   -0.9518 C.3       12 UNK        -0.0944 
      7 S7         30.7971   21.2628   -0.4350 S.3       12 UNK        -0.2672 
      8 C8         31.9951   22.6376   -0.5581 C.3       12 UNK         0.0333 
      9 C9         32.3504   23.3395    0.7559 C.ar      12 UNK        -0.0807 
     10 C10        33.4994   24.1380    0.7779 C.ar      12 UNK        -0.0894 
     11 C11        33.9146   24.7673    1.9536 C.ar      12 UNK        -0.0804 
     12 C12        33.1698   24.5922    3.1203 C.ar      12 UNK        -0.0824 
     13 C13        31.9946   23.8383    3.1143 C.ar      12 UNK        -0.0762 
     14 C14        31.5895   23.2133    1.9292 C.ar      12 UNK        -0.0782 
     15 C15        31.2031   23.6594    4.4060 C.3       12 UNK         0.0230 
     16 S16        29.8053   24.8234    4.5674 S.3       12 UNK        -0.2608 
     17 C17        30.6464   26.4408    4.7534 C.3       12 UNK        -0.0989 
     18 CA         30.1489   27.5545    3.7857 C.3       5 UNK         0.0716 
     19 N          29.7134   27.0245    2.4892 N.am      5 UNK        -0.4135 
     20 C          29.5383   27.7403    1.3734 C.2       4 UNK         0.5031 
     21 O          29.7331   28.9505    1.2905 O.2       4 UNK        -0.5229 
     22 CA         28.9902   26.9803    0.1603 C.3       4 UNK         0.0329 
     23 CB         30.0505   26.0350   -0.4246 C.3       4 UNK        -0.2001 
     24 N          27.7711   26.2287    0.4668 N.am      4 UNK        -0.4303 
     25 C          26.5965   26.7693    0.8201 C.2       3 UNK         0.5044 
     26 O          26.4452   27.9678    1.0596 O.2       3 UNK        -0.5152 
     27 CA         25.3960   25.8036    0.9141 C.3       3 UNK         0.0319 
     28 CB         24.0346   26.5310    0.9473 C.3       3 UNK        -0.2001 
     29 N          25.4119   24.7836   -0.1439 N.am      3 UNK        -0.4354 
     30 C          25.3825   24.9779   -1.4731 C.2       2 UNK         0.4964 
     31 O          25.2447   26.0817   -2.0029 O.2       2 UNK        -0.5047 
     32 CA         25.5853   23.7264   -2.3542 C.3       2 UNK         0.0288 
     33 CB         25.8075   24.0731   -3.8392 C.3       2 UNK        -0.2113 
     34 N          26.7236   22.9335   -1.8799 N.am      2 UNK        -0.4145 
     35 C          26.6575   21.9881   -0.9326 C.2       1 UNK         0.5006 
     36 O          25.5909   21.6099   -0.4409 O.2       1 UNK        -0.5103 
     37 C          29.1092   28.4791    4.4563 C.2       5 UNK         0.5055 
     38 O          29.4874   29.2557    5.3342 O.2       5 UNK        -0.5220 
     39 N          27.8337   28.3965    4.0509 N.am      6 UNK        -0.4450 
     40 CA         26.7824   29.3117    4.4961 C.3       6 UNK         0.0367 
     41 CB         25.4114   28.6249    4.4003 C.3       6 UNK        -0.1929 
     42 C          26.8066   30.6171    3.6854 C.2       6 UNK         0.5070 
     43 O          26.7205   31.6944    4.2748 O.2       6 UNK        -0.5237 
     44 N          26.9228   30.5005    2.3545 N.am      7 UNK        -0.4739 
     45 CA         26.9823   31.6263    1.4202 C.3       7 UNK         0.0276 
     46 CB         26.7841   31.1107   -0.0147 C.3       7 UNK        -0.1927 
     47 C          28.2884   32.4278    1.5349 C.2       7 UNK         0.5013 
     48 O          28.2397   33.6573    1.5947 O.2       7 UNK        -0.5193 
     49 N          29.4236   31.7214    1.5704 N.am      8 UNK        -0.4253 
     50 CA         30.7597   32.2802    1.7279 C.3       8 UNK         0.0242 
     51 CB         31.6532   31.7891    0.5735 C.3       8 UNK        -0.2000 
     52 C          31.2916   31.8320    3.0909 C.2       8 UNK         0.4948 
     53 O          31.9016   30.7667    3.1928 O.2       8 UNK        -0.5275 
     54 N          31.0642   32.6611    4.1196 N.am      9 UNK        -0.4246 
     55 CA         31.4717   32.4187    5.5116 C.3       9 UNK         0.0261 
     56 CB         31.0086   33.5929    6.3885 C.3       9 UNK        -0.1959 
     57 C          32.9794   32.1621    5.7061 C.2       9 UNK         0.5033 
     58 O          33.3569   31.4726    6.6542 O.2       9 UNK        -0.5390 
     59 N          33.8071   32.6713    4.7816 N.am      10 UNK        -0.4215 
     60 CA         35.2448   32.4092    4.6803 C.3       10 UNK         0.0240 
     61 CB         35.8320   33.2639    3.5451 C.3       10 UNK        -0.1982 
     62 C          35.6066   30.9238    4.4761 C.2       10 UNK         0.4970 
     63 O          36.7152   30.5343    4.8457 O.2       10 UNK        -0.4916 
     64 N          34.6846   30.1215    3.9207 N.am      11 UNK        -0.4279 
     65 CA         34.8103   28.6575    3.8424 C.3       11 UNK         0.1003 
     66 C          34.5626   27.9344    5.2018 C.2       11 UNK         0.5709 
     67 N          34.0614   28.5928    6.2415 N.am      11 UNK        -0.7358 
     68 O          34.8492   26.7475    5.3243 O.2       11 UNK        -0.4999 
     69 C69        33.9413   28.0604    2.6914 C.3       12 UNK        -0.0954 
     70 S70        34.9303   27.2981    1.3615 S.3       12 UNK        -0.2268 
     71 C71        35.1885   25.6015    1.9749 C.3       12 UNK         0.0203 
     72 H72        28.6600   21.8415    3.8162 H         1 UNK         0.0888 
     73 H73        27.2766   22.9342    3.9105 H         1 UNK         0.0888 
     74 H74        27.0246   21.2284    3.5414 H         1 UNK         0.0888 
     75 H75        27.9076   20.4035    1.4567 H         1 UNK         0.3017 
     76 H76        27.9978   20.3621   -0.7450 H         1 UNK         0.0873 
     77 H77        29.2613   22.0952   -2.0432 H         1 UNK         0.0745 
     78 H78        29.2978   23.1376   -0.6364 H         1 UNK         0.0745 
     79 H79        32.9094   22.2235   -0.9860 H         1 UNK         0.0705 
     80 H80        31.6382   23.3786   -1.2747 H         1 UNK         0.0705 
     81 H81        34.0874   24.2579   -0.1222 H         1 UNK         0.1334 
     82 H82        33.5092   25.0454    4.0397 H         1 UNK         0.1417 
     83 H83        30.6905   22.6160    1.9345 H         1 UNK         0.1562 
     84 H84        31.8583   23.7703    5.2716 H         1 UNK         0.0748 
     85 H85        30.8198   22.6399    4.4555 H         1 UNK         0.0748 
     86 H86        31.7139   26.3045    4.6025 H         1 UNK         0.0940 
     87 H87        30.5682   26.7484    5.7985 H         1 UNK         0.0940 
     88 H88        31.0023   28.2044    3.5814 H         1 UNK         0.0703 
     89 H89        29.5136   26.0331    2.4727 H         1 UNK         0.3081 
     90 H90        28.7379   27.7195   -0.6031 H         1 UNK         0.0719 
     91 H91        30.2883   25.2265    0.2658 H         1 UNK         0.0809 
     92 H92        29.7124   25.5905   -1.3606 H         1 UNK         0.0809 
     93 H93        30.9793   26.5675   -0.6349 H         1 UNK         0.0809 
     94 H94        27.8297   25.2146    0.4471 H         1 UNK         0.2990 
     95 H95        25.5103   25.2680    1.8577 H         1 UNK         0.0690 
     96 H96        23.2074   25.8226    0.9902 H         1 UNK         0.0788 
     97 H97        23.8910   27.1617    0.0694 H         1 UNK         0.0788 
     98 H98        23.9514   27.1737    1.8227 H         1 UNK         0.0788 
     99 H99        25.5465   23.8333    0.1786 H         1 UNK         0.2993 
    100 H100       24.6692   23.1353   -2.2856 H         1 UNK         0.0949 
    101 H101       26.6916   24.6961   -3.9814 H         1 UNK         0.0767 
    102 H102       25.9305   23.1730   -4.4420 H         1 UNK         0.0767 
    103 H103       24.9544   24.6178   -4.2463 H         1 UNK         0.0767 
    104 H104       27.6318   23.2122   -2.2213 H         1 UNK         0.3013 
    105 H105       27.6023   27.7549    3.3069 H         1 UNK         0.3121 
    106 H106       26.9501   29.5650    5.5455 H         1 UNK         0.0774 
    107 H107       25.1535   28.3787    3.3718 H         1 UNK         0.0815 
    108 H108       24.6250   29.2763    4.7835 H         1 UNK         0.0815 
    109 H109       25.3847   27.7051    4.9847 H         1 UNK         0.0815 
    110 H110       26.9318   29.5716    1.9392 H         1 UNK         0.2987 
    111 H111       26.1574   32.3027    1.6550 H         1 UNK         0.0949 
    112 H112       27.5571   30.3941   -0.2964 H         1 UNK         0.0806 
    113 H113       25.8185   30.6171   -0.1273 H         1 UNK         0.0806 
    114 H114       26.8169   31.9300   -0.7341 H         1 UNK         0.0806 
    115 H115       29.3821   30.7021    1.5342 H         1 UNK         0.3010 
    116 H116       30.7400   33.3717    1.6989 H         1 UNK         0.0829 
    117 H117       31.2792   32.1365   -0.3894 H         1 UNK         0.0813 
    118 H118       32.6719   32.1630    0.6824 H         1 UNK         0.0813 
    119 H119       31.7083   30.7001    0.5349 H         1 UNK         0.0813 
    120 H120       30.5359   33.5051    3.9471 H         1 UNK         0.3038 
    121 H121       30.9520   31.5181    5.8447 H         1 UNK         0.0769 
    122 H122       31.4659   34.5337    6.0794 H         1 UNK         0.0811 
    123 H123       31.2755   33.4284    7.4335 H         1 UNK         0.0811 
    124 H124       29.9259   33.7148    6.3496 H         1 UNK         0.0811 
    125 H125       33.3978   33.2272    4.0454 H         1 UNK         0.3204 
    126 H126       35.7009   32.7259    5.6206 H         1 UNK         0.0748 
    127 H127       36.9097   33.1156    3.4619 H         1 UNK         0.0771 
    128 H128       35.3929   33.0092    2.5795 H         1 UNK         0.0771 
    129 H129       35.6671   34.3272    3.7210 H         1 UNK         0.0771 
    130 H130       33.7765   30.4980    3.6625 H         1 UNK         0.2980 
    131 H131       35.8573   28.4487    3.6145 H         1 UNK         0.0545 
    132 H132       33.8417   29.5814    6.1922 H         1 UNK         0.3459 
    133 H133       33.9253   28.0982    7.1080 H         1 UNK         0.3459 
    134 H134       33.3398   28.8356    2.2160 H         1 UNK         0.0616 
    135 H135       33.2120   27.3354    3.0493 H         1 UNK         0.0616 
    136 H136       35.6097   25.6388    2.9801 H         1 UNK         0.0634 
    137 H137       35.9439   25.1205    1.3520 H         1 UNK         0.0634 
@<TRIPOS>BOND
     1    1    2 1    
     2    1   72 1    
     3    1   73 1    
     4    1   74 1    
     5    2    3 2    
     6    2    4 am   BACKBONE|DICT|INTERRES
     7    4    5 1    
     8    4   75 1    
     9    5    6 1    
    10    5   35 1    
    11    5   76 1    
    12    6    7 1    
    13    6   77 1    
    14    6   78 1    
    15    7    8 1    
    16    8    9 1    
    17    8   79 1    
    18    8   80 1    
    19    9   10 ar   
    20    9   14 ar   
    21   10   11 ar   
    22   10   81 1    
    23   11   12 ar   
    24   11   71 1    
    25   12   13 ar   
    26   12   82 1    
    27   13   14 ar   
    28   13   15 1    
    29   14   83 1    
    30   15   16 1    
    31   15   84 1    
    32   15   85 1    
    33   16   17 1    
    34   17   18 1    
    35   17   86 1    
    36   17   87 1    
    37   18   19 1    
    38   18   37 1    
    39   18   88 1    
    40   19   20 am   BACKBONE|DICT|INTERRES
    41   19   89 1    
    42   20   21 2    
    43   20   22 1    
    44   22   23 1    
    45   22   24 1    
    46   22   90 1    
    47   23   91 1    
    48   23   92 1    
    49   23   93 1    
    50   24   25 am   BACKBONE|DICT|INTERRES
    51   24   94 1    
    52   25   26 2    
    53   25   27 1    
    54   27   28 1    
    55   27   29 1    
    56   27   95 1    
    57   28   96 1    
    58   28   97 1    
    59   28   98 1    
    60   29   30 am   BACKBONE|DICT|INTERRES
    61   29   99 1    
    62   30   31 2    
    63   30   32 1    
    64   32   33 1    
    65   32   34 1    
    66   32  100 1    
    67   33  101 1    
    68   33  102 1    
    69   33  103 1    
    70   34   35 am   BACKBONE|DICT|INTERRES
    71   34  104 1    
    72   35   36 2    
    73   37   38 2    
    74   37   39 am   BACKBONE|DICT|INTERRES
    75   39   40 1    
    76   39  105 1    
    77   40   41 1    
    78   40   42 1    
    79   40  106 1    
    80   41  107 1    
    81   41  108 1    
    82   41  109 1    
    83   42   43 2    
    84   42   44 am   BACKBONE|DICT|INTERRES
    85   44   45 1    
    86   44  110 1    
    87   45   46 1    
    88   45   47 1    
    89   45  111 1    
    90   46  112 1    
    91   46  113 1    
    92   46  114 1    
    93   47   48 2    
    94   47   49 am   BACKBONE|DICT|INTERRES
    95   49   50 1    
    96   49  115 1    
    97   50   51 1    
    98   50   52 1    
    99   50  116 1    
   100   51  117 1    
   101   51  118 1    
   102   51  119 1    
   103   52   53 2    
   104   52   54 am   BACKBONE|DICT|INTERRES
   105   54   55 1    
   106   54  120 1    
   107   55   56 1    
   108   55   57 1    
   109   55  121 1    
   110   56  122 1    
   111   56  123 1    
   112   56  124 1    
   113   57   58 2    
   114   57   59 am   BACKBONE|DICT|INTERRES
   115   59   60 1    
   116   59  125 1    
   117   60   61 1    
   118   60   62 1    
   119   60  126 1    
   120   61  127 1    
   121   61  128 1    
   122   61  129 1    
   123   62   63 2    
   124   62   64 am   BACKBONE|DICT|INTERRES
   125   64   65 1    
   126   64  130 1    
   127   65   66 1    
   128   65   69 1    
   129   65  131 1    
   130   66   67 am   BACKBONE|DICT|INTERRES
   131   66   68 2    
   132   67  132 1    
   133   67  133 1    
   134   69   70 1    
   135   69  134 1    
   136   69  135 1    
   137   70   71 1    
   138   71  136 1    
   139   71  137 1    
@<TRIPOS>SUBSTRUCTURE
     1 UNK         1 GROUP             0       ****    0 ROOT    
