@<TRIPOS>MOLECULE
3R136
137   139    1
SMALL
USER_CHARGES


@<TRIPOS>ATOM
      1 CA         29.6822   19.8132    5.6762 C.3       0 UNK        -0.1979 
      2 C          28.6245   20.6958    5.0295 C.2       0 UNK         0.4864 
      3 O          27.6712   21.0983    5.6990 O.2       0 UNK        -0.5359 
      4 N          28.7804   20.9895    3.7328 N.am      1 UNK        -0.4318 
      5 CA         27.9122   21.8876    2.9662 C.3       1 UNK         0.0824 
      6 C6         27.9750   21.5676    1.4464 C.3       12 UNK        -0.0944 
      7 S7         29.6153   21.8372    0.6817 S.3       12 UNK        -0.2672 
      8 C8         29.3306   23.4083   -0.1985 C.3       12 UNK         0.0333 
      9 C9         30.5831   24.2692   -0.2570 C.ar      12 UNK        -0.0807 
     10 C10        31.1768   24.7228    0.9239 C.ar      12 UNK        -0.0894 
     11 C11        32.3298   25.5099    0.8881 C.ar      12 UNK        -0.0804 
     12 C12        32.8770   25.8693   -0.3476 C.ar      12 UNK        -0.0824 
     13 C13        32.2900   25.4260   -1.5383 C.ar      12 UNK        -0.0762 
     14 C14        31.1453   24.6234   -1.4865 C.ar      12 UNK        -0.0782 
     15 C15        32.9236   25.7730   -2.8780 C.3       12 UNK         0.0230 
     16 S16        32.4528   27.4317   -3.4601 S.3       12 UNK        -0.2608 
     17 C17        30.7140   27.1897   -3.9904 C.3       12 UNK        -0.0989 
     18 CA         29.6114   28.1344   -3.4036 C.3       5 UNK         0.0716 
     19 N          28.4975   27.4213   -2.7756 N.am      5 UNK        -0.4135 
     20 C          27.5028   26.8224   -3.4418 C.2       4 UNK         0.5031 
     21 O          27.4831   26.6973   -4.6671 O.2       4 UNK        -0.5229 
     22 CA         26.3171   26.2760   -2.6200 C.3       4 UNK         0.0329 
     23 CB         26.3526   24.7410   -2.5680 C.3       4 UNK        -0.2001 
     24 N          26.2347   26.7988   -1.2517 N.am      4 UNK        -0.4303 
     25 C          25.9195   28.0577   -0.9200 C.2       3 UNK         0.5044 
     26 O          25.6619   28.9300   -1.7495 O.2       3 UNK        -0.5152 
     27 CA         25.9257   28.4351    0.5731 C.3       3 UNK         0.0319 
     28 CB         24.4933   28.6053    1.1163 C.3       3 UNK        -0.2001 
     29 N          26.7331   27.5616    1.4391 N.am      3 UNK        -0.4354 
     30 C          26.4958   26.3055    1.8345 C.2       2 UNK         0.4964 
     31 O          25.5488   25.6220    1.4378 O.2       2 UNK        -0.5047 
     32 CA         27.4950   25.7110    2.8342 C.3       2 UNK         0.0288 
     33 CB         27.2671   26.2795    4.2478 C.3       2 UNK        -0.2113 
     34 N          27.3300   24.2606    2.8333 N.am      2 UNK        -0.4145 
     35 C          28.2272   23.3708    3.2695 C.2       1 UNK         0.5006 
     36 O          29.2772   23.6836    3.8384 O.2       1 UNK        -0.5103 
     37 C          30.0766   29.2663   -2.4691 C.2       5 UNK         0.5055 
     38 O          30.1727   30.4121   -2.9134 O.2       5 UNK        -0.5220 
     39 N          30.3117   28.9414   -1.1915 N.am      6 UNK        -0.4450 
     40 CA         30.6744   29.8882   -0.1404 C.3       6 UNK         0.0367 
     41 CB         32.1498   29.6775    0.2353 C.3       6 UNK        -0.1929 
     42 C          29.7593   29.6605    1.0667 C.2       6 UNK         0.5070 
     43 O          29.3109   28.5337    1.2901 O.2       6 UNK        -0.5237 
     44 N          29.4841   30.7329    1.8166 N.am      7 UNK        -0.4739 
     45 CA         28.7036   30.6987    3.0559 C.3       7 UNK         0.0276 
     46 CB         28.2654   32.1306    3.4035 C.3       7 UNK        -0.1927 
     47 C          29.5205   30.0996    4.2107 C.2       7 UNK         0.5013 
     48 O          30.7504   30.1725    4.1866 O.2       7 UNK        -0.5193 
     49 N          28.8291   29.5838    5.2368 N.am      8 UNK        -0.4253 
     50 CA         29.4249   28.9353    6.4144 C.3       8 UNK         0.0242 
     51 CB         28.3099   28.4817    7.3702 C.3       8 UNK        -0.2000 
     52 C          30.4584   29.7969    7.1655 C.2       8 UNK         0.4948 
     53 O          31.4521   29.2607    7.6558 O.2       8 UNK        -0.5275 
     54 N          30.2309   31.1177    7.1970 N.am      9 UNK        -0.4246 
     55 CA         31.1475   32.1124    7.7596 C.3       9 UNK         0.0261 
     56 CB         30.4176   33.4607    7.8746 C.3       9 UNK        -0.1959 
     57 C          32.4560   32.2773    6.9616 C.2       9 UNK         0.5033 
     58 O          33.4616   32.6782    7.5495 O.2       9 UNK        -0.5390 
     59 N          32.4286   31.9772    5.6552 N.am      10 UNK        -0.4215 
     60 CA         33.6015   31.9767    4.7806 C.3       10 UNK         0.0240 
     61 CB         33.1909   32.3946    3.3588 C.3       10 UNK        -0.1982 
     62 C          34.2875   30.6021    4.7791 C.2       10 UNK         0.4970 
     63 O          35.5182   30.5519    4.7758 O.2       10 UNK        -0.4916 
     64 N          33.4935   29.5213    4.7983 N.am      11 UNK        -0.4279 
     65 CA         33.9716   28.1365    4.9352 C.3       11 UNK         0.1003 
     66 C          34.7018   27.8662    6.2803 C.2       11 UNK         0.5709 
     67 N          34.1891   28.3499    7.4053 N.am      11 UNK        -0.7358 
     68 O          35.7427   27.2137    6.3003 O.2       11 UNK        -0.4999 
     69 C69        32.8403   27.0979    4.7289 C.3       12 UNK        -0.0954 
     70 S70        32.0606   27.1837    3.0843 S.3       12 UNK        -0.2268 
     71 C71        33.0046   25.9122    2.1913 C.3       12 UNK         0.0203 
     72 H72        30.4555   19.5179    4.9671 H         1 UNK         0.0888 
     73 H73        29.2242   18.9083    6.0746 H         1 UNK         0.0888 
     74 H74        30.1613   20.3441    6.4984 H         1 UNK         0.0888 
     75 H75        29.6010   20.6656    3.2409 H         1 UNK         0.3017 
     76 H76        26.8845   21.7114    3.2923 H         1 UNK         0.0873 
     77 H77        27.2163   22.1331    0.9024 H         1 UNK         0.0745 
     78 H78        27.7085   20.5211    1.2895 H         1 UNK         0.0745 
     79 H79        28.9753   23.1704   -1.2012 H         1 UNK         0.0705 
     80 H80        28.5426   23.9858    0.2844 H         1 UNK         0.0705 
     81 H81        30.7543   24.4450    1.8789 H         1 UNK         0.1334 
     82 H82        33.7719   26.4756   -0.3851 H         1 UNK         0.1417 
     83 H83        30.6977   24.2654   -2.4034 H         1 UNK         0.1562 
     84 H84        32.6629   25.0317   -3.6351 H         1 UNK         0.0748 
     85 H85        34.0099   25.7340   -2.7836 H         1 UNK         0.0748 
     86 H86        30.4396   26.1481   -3.8262 H         1 UNK         0.0940 
     87 H87        30.7104   27.2914   -5.0769 H         1 UNK         0.0940 
     88 H88        29.1802   28.6631   -4.2578 H         1 UNK         0.0703 
     89 H89        28.4063   27.5192   -1.7756 H         1 UNK         0.3081 
     90 H90        25.4058   26.5735   -3.1431 H         1 UNK         0.0719 
     91 H91        27.2348   24.3800   -2.0436 H         1 UNK         0.0809 
     92 H92        25.4730   24.3392   -2.0645 H         1 UNK         0.0809 
     93 H93        26.3724   24.3148   -3.5721 H         1 UNK         0.0809 
     94 H94        26.3490   26.1370   -0.4947 H         1 UNK         0.2990 
     95 H95        26.4092   29.4119    0.6286 H         1 UNK         0.0690 
     96 H96        24.4995   28.9328    2.1558 H         1 UNK         0.0788 
     97 H97        23.9209   27.6791    1.0584 H         1 UNK         0.0788 
     98 H98        23.9477   29.3563    0.5435 H         1 UNK         0.0788 
     99 H99        27.6397   27.9575    1.6875 H         1 UNK         0.2993 
    100 H100       28.5059   25.9562    2.4979 H         1 UNK         0.0949 
    101 H101       27.3367   27.3670    4.2479 H         1 UNK         0.0767 
    102 H102       26.2823   26.0140    4.6341 H         1 UNK         0.0767 
    103 H103       28.0144   25.9111    4.9508 H         1 UNK         0.0767 
    104 H104       26.4893   23.9525    2.3585 H         1 UNK         0.3013 
    105 H105       30.2239   27.9829   -0.8823 H         1 UNK         0.3121 
    106 H106       30.5380   30.9166   -0.4816 H         1 UNK         0.0774 
    107 H107       32.8056   29.8936   -0.6080 H         1 UNK         0.0815 
    108 H108       32.3403   28.6514    0.5480 H         1 UNK         0.0815 
    109 H109       32.4474   30.3285    1.0566 H         1 UNK         0.0815 
    110 H110       29.9199   31.6136    1.5854 H         1 UNK         0.2987 
    111 H111       27.8155   30.0833    2.8969 H         1 UNK         0.0949 
    112 H112       29.1209   32.7828    3.5859 H         1 UNK         0.0806 
    113 H113       27.6752   32.5702    2.5990 H         1 UNK         0.0806 
    114 H114       27.6455   32.1477    4.3008 H         1 UNK         0.0806 
    115 H115       27.8201   29.6036    5.2005 H         1 UNK         0.3010 
    116 H116       29.9447   28.0448    6.0570 H         1 UNK         0.0829 
    117 H117       27.6319   27.7776    6.8881 H         1 UNK         0.0813 
    118 H118       28.7268   27.9774    8.2434 H         1 UNK         0.0813 
    119 H119       27.7191   29.3240    7.7322 H         1 UNK         0.0813 
    120 H120       29.3842   31.4659    6.7718 H         1 UNK         0.3038 
    121 H121       31.4197   31.7842    8.7652 H         1 UNK         0.0769 
    122 H122       30.1016   33.8342    6.8996 H         1 UNK         0.0811 
    123 H123       31.0654   34.2179    8.3187 H         1 UNK         0.0811 
    124 H124       29.5341   33.3820    8.5084 H         1 UNK         0.0811 
    125 H125       31.5837   31.5769    5.2600 H         1 UNK         0.3204 
    126 H126       34.3264   32.7088    5.1433 H         1 UNK         0.0748 
    127 H127       32.7815   33.4048    3.3484 H         1 UNK         0.0771 
    128 H128       34.0492   32.3851    2.6856 H         1 UNK         0.0771 
    129 H129       32.4392   31.7273    2.9394 H         1 UNK         0.0771 
    130 H130       32.4884   29.6446    4.7158 H         1 UNK         0.2980 
    131 H131       34.7066   27.9788    4.1435 H         1 UNK         0.0545 
    132 H132       34.6646   28.1785    8.2762 H         1 UNK         0.3459 
    133 H133       33.2847   28.8144    7.4079 H         1 UNK         0.3459 
    134 H134       33.2137   26.0845    4.8868 H         1 UNK         0.0616 
    135 H135       32.0594   27.2434    5.4758 H         1 UNK         0.0616 
    136 H136       33.1060   25.0243    2.8169 H         1 UNK         0.0634 
    137 H137       34.0149   26.2817    2.0097 H         1 UNK         0.0634 
@<TRIPOS>BOND
     1    1    2 1    
     2    1   72 1    
     3    1   73 1    
     4    1   74 1    
     5    2    3 2    
     6    2    4 am   BACKBONE|DICT|INTERRES
     7    4    5 1    
     8    4   75 1    
     9    5    6 1    
    10    5   35 1    
    11    5   76 1    
    12    6    7 1    
    13    6   77 1    
    14    6   78 1    
    15    7    8 1    
    16    8    9 1    
    17    8   79 1    
    18    8   80 1    
    19    9   10 ar   
    20    9   14 ar   
    21   10   11 ar   
    22   10   81 1    
    23   11   12 ar   
    24   11   71 1    
    25   12   13 ar   
    26   12   82 1    
    27   13   14 ar   
    28   13   15 1    
    29   14   83 1    
    30   15   16 1    
    31   15   84 1    
    32   15   85 1    
    33   16   17 1    
    34   17   18 1    
    35   17   86 1    
    36   17   87 1    
    37   18   19 1    
    38   18   37 1    
    39   18   88 1    
    40   19   20 am   BACKBONE|DICT|INTERRES
    41   19   89 1    
    42   20   21 2    
    43   20   22 1    
    44   22   23 1    
    45   22   24 1    
    46   22   90 1    
    47   23   91 1    
    48   23   92 1    
    49   23   93 1    
    50   24   25 am   BACKBONE|DICT|INTERRES
    51   24   94 1    
    52   25   26 2    
    53   25   27 1    
    54   27   28 1    
    55   27   29 1    
    56   27   95 1    
    57   28   96 1    
    58   28   97 1    
    59   28   98 1    
    60   29   30 am   BACKBONE|DICT|INTERRES
    61   29   99 1    
    62   30   31 2    
    63   30   32 1    
    64   32   33 1    
    65   32   34 1    
    66   32  100 1    
    67   33  101 1    
    68   33  102 1    
    69   33  103 1    
    70   34   35 am   BACKBONE|DICT|INTERRES
    71   34  104 1    
    72   35   36 2    
    73   37   38 2    
    74   37   39 am   BACKBONE|DICT|INTERRES
    75   39   40 1    
    76   39  105 1    
    77   40   41 1    
    78   40   42 1    
    79   40  106 1    
    80   41  107 1    
    81   41  108 1    
    82   41  109 1    
    83   42   43 2    
    84   42   44 am   BACKBONE|DICT|INTERRES
    85   44   45 1    
    86   44  110 1    
    87   45   46 1    
    88   45   47 1    
    89   45  111 1    
    90   46  112 1    
    91   46  113 1    
    92   46  114 1    
    93   47   48 2    
    94   47   49 am   BACKBONE|DICT|INTERRES
    95   49   50 1    
    96   49  115 1    
    97   50   51 1    
    98   50   52 1    
    99   50  116 1    
   100   51  117 1    
   101   51  118 1    
   102   51  119 1    
   103   52   53 2    
   104   52   54 am   BACKBONE|DICT|INTERRES
   105   54   55 1    
   106   54  120 1    
   107   55   56 1    
   108   55   57 1    
   109   55  121 1    
   110   56  122 1    
   111   56  123 1    
   112   56  124 1    
   113   57   58 2    
   114   57   59 am   BACKBONE|DICT|INTERRES
   115   59   60 1    
   116   59  125 1    
   117   60   61 1    
   118   60   62 1    
   119   60  126 1    
   120   61  127 1    
   121   61  128 1    
   122   61  129 1    
   123   62   63 2    
   124   62   64 am   BACKBONE|DICT|INTERRES
   125   64   65 1    
   126   64  130 1    
   127   65   66 1    
   128   65   69 1    
   129   65  131 1    
   130   66   67 am   BACKBONE|DICT|INTERRES
   131   66   68 2    
   132   67  132 1    
   133   67  133 1    
   134   69   70 1    
   135   69  134 1    
   136   69  135 1    
   137   70   71 1    
   138   71  136 1    
   139   71  137 1    
@<TRIPOS>SUBSTRUCTURE
     1 UNK         1 GROUP             0       ****    0 ROOT    
