@<TRIPOS>MOLECULE
3R136
137   139    1
SMALL
USER_CHARGES


@<TRIPOS>ATOM
      1 CA         30.3321   21.0078   -2.0211 C.3       0 UNK        -0.1979 
      2 C          31.1050   22.2870   -1.7069 C.2       0 UNK         0.4864 
      3 O          32.0025   22.6392   -2.4714 O.2       0 UNK        -0.5359 
      4 N          30.8276   23.0127   -0.6123 N.am      1 UNK        -0.4318 
      5 CA         29.7841   22.8156    0.4101 C.3       1 UNK         0.0824 
      6 C6         29.8891   21.4754    1.2013 C.3       12 UNK        -0.0944 
      7 S7         31.5922   21.1029    1.7569 S.3       12 UNK        -0.2672 
      8 C8         31.6049   21.7079    3.4765 C.3       12 UNK         0.0333 
      9 C9         31.2158   23.1764    3.5794 C.ar      12 UNK        -0.0807 
     10 C10        32.0339   24.1704    3.0320 C.ar      12 UNK        -0.0894 
     11 C11        31.6627   25.5197    3.0996 C.ar      12 UNK        -0.0804 
     12 C12        30.4574   25.8630    3.7199 C.ar      12 UNK        -0.0824 
     13 C13        29.6350   24.8788    4.2755 C.ar      12 UNK        -0.0762 
     14 C14        30.0225   23.5389    4.2081 C.ar      12 UNK        -0.0782 
     15 C15        28.3122   25.2478    4.9258 C.3       12 UNK         0.0230 
     16 S16        26.9492   25.0023    3.7473 S.3       12 UNK        -0.2608 
     17 C17        26.2063   26.6665    3.6607 C.3       12 UNK        -0.0989 
     18 CA         27.0790   27.6991    2.9060 C.3       5 UNK         0.0716 
     19 N          27.4665   27.2611    1.5591 N.am      5 UNK        -0.4135 
     20 C          28.4206   27.8507    0.8189 C.2       4 UNK         0.5031 
     21 O          29.0890   28.8020    1.2217 O.2       4 UNK        -0.5229 
     22 CA         28.6502   27.3497   -0.6188 C.3       4 UNK         0.0329 
     23 CB         29.9524   26.5398   -0.6954 C.3       4 UNK        -0.2001 
     24 N          27.5388   26.5623   -1.1613 N.am      4 UNK        -0.4303 
     25 C          26.3111   27.0487   -1.4062 C.2       3 UNK         0.5044 
     26 O          25.9995   28.2266   -1.2271 O.2       3 UNK        -0.5152 
     27 CA         25.2331   26.0489   -1.8687 C.3       3 UNK         0.0319 
     28 CB         25.1467   26.0230   -3.4025 C.3       3 UNK        -0.2001 
     29 N          25.4428   24.6850   -1.3712 N.am      3 UNK        -0.4354 
     30 C          25.5104   24.3398   -0.0772 C.2       2 UNK         0.4964 
     31 O          25.3329   25.1355    0.8437 O.2       2 UNK        -0.5047 
     32 CA         25.8951   22.8841    0.2494 C.3       2 UNK         0.0288 
     33 CB         25.5163   21.8805   -0.8638 C.3       2 UNK        -0.2113 
     34 N          27.3176   22.7492    0.6003 N.am      2 UNK        -0.4145 
     35 C          28.3718   23.1105   -0.1496 C.2       1 UNK         0.5006 
     36 O          28.2616   23.6729   -1.2432 O.2       1 UNK        -0.5103 
     37 C          26.4217   29.0975    2.9271 C.2       5 UNK         0.5055 
     38 O          26.3578   29.7073    3.9948 O.2       5 UNK        -0.5220 
     39 N          26.0009   29.6174    1.7622 N.am      6 UNK        -0.4450 
     40 CA         25.5879   31.0122    1.5773 C.3       6 UNK         0.0367 
     41 CB         24.9807   31.1756    0.1750 C.3       6 UNK        -0.1929 
     42 C          26.7335   32.0255    1.7877 C.2       6 UNK         0.5070 
     43 O          26.4543   33.1950    2.0525 O.2       6 UNK        -0.5237 
     44 N          27.9893   31.5691    1.6833 N.am      7 UNK        -0.4739 
     45 CA         29.2026   32.3424    1.9383 C.3       7 UNK         0.0276 
     46 CB         29.8391   32.7472    0.5951 C.3       7 UNK        -0.1927 
     47 C          30.1530   31.5219    2.8259 C.2       7 UNK         0.5013 
     48 O          31.3542   31.4710    2.5548 O.2       7 UNK        -0.5193 
     49 N          29.5984   30.8895    3.8755 N.am      8 UNK        -0.4253 
     50 CA         30.2765   29.9419    4.7743 C.3       8 UNK         0.0242 
     51 CB         29.3082   29.4824    5.8767 C.3       8 UNK        -0.2000 
     52 C          31.5859   30.4413    5.4077 C.2       8 UNK         0.4948 
     53 O          32.4647   29.6242    5.6821 O.2       8 UNK        -0.5275 
     54 N          31.7182   31.7653    5.5762 N.am      9 UNK        -0.4246 
     55 CA         32.9335   32.4532    6.0216 C.3       9 UNK         0.0261 
     56 CB         32.6619   33.9641    6.0954 C.3       9 UNK        -0.1959 
     57 C          34.1746   32.1724    5.1514 C.2       9 UNK         0.5033 
     58 O          35.2878   32.2187    5.6766 O.2       9 UNK        -0.5390 
     59 N          33.9769   31.8324    3.8668 N.am      10 UNK        -0.4215 
     60 CA         35.0344   31.3860    2.9532 C.3       10 UNK         0.0240 
     61 CB         34.4647   31.2738    1.5298 C.3       10 UNK        -0.1982 
     62 C          35.6932   30.0561    3.3710 C.2       10 UNK         0.4970 
     63 O          36.8424   29.8202    2.9957 O.2       10 UNK        -0.4916 
     64 N          34.9728   29.2316    4.1422 N.am      11 UNK        -0.4279 
     65 CA         35.4622   27.9859    4.7485 C.3       11 UNK         0.1003 
     66 C          35.8427   28.1560    6.2494 C.2       11 UNK         0.5709 
     67 N          35.8762   29.3632    6.8051 N.am      11 UNK        -0.7358 
     68 O          36.1445   27.1743    6.9244 O.2       11 UNK        -0.4999 
     69 C69        34.4651   26.8176    4.5191 C.3       12 UNK        -0.0954 
     70 S70        34.3081   26.4031    2.7491 S.3       12 UNK        -0.2268 
     71 C71        32.5200   26.6116    2.4621 C.3       12 UNK         0.0203 
     72 H72        30.7072   20.1833   -1.4156 H         1 UNK         0.0888 
     73 H73        29.2627   21.1131   -1.8521 H         1 UNK         0.0888 
     74 H74        30.4655   20.7358   -3.0679 H         1 UNK         0.0888 
     75 H75        31.3808   23.8444   -0.4714 H         1 UNK         0.3017 
     76 H76        29.9534   23.6155    1.1302 H         1 UNK         0.0873 
     77 H77        29.2428   21.4938    2.0800 H         1 UNK         0.0745 
     78 H78        29.5394   20.6355    0.6006 H         1 UNK         0.0745 
     79 H79        32.6053   21.5737    3.8902 H         1 UNK         0.0705 
     80 H80        30.9400   21.0839    4.0757 H         1 UNK         0.0705 
     81 H81        32.9512   23.8861    2.5349 H         1 UNK         0.1334 
     82 H82        30.1497   26.8966    3.7562 H         1 UNK         0.1417 
     83 H83        29.3799   22.7769    4.6285 H         1 UNK         0.1562 
     84 H84        28.3365   26.2758    5.2895 H         1 UNK         0.0748 
     85 H85        28.1406   24.6216    5.8026 H         1 UNK         0.0748 
     86 H86        26.0029   27.0030    4.6795 H         1 UNK         0.0940 
     87 H87        25.2321   26.5708    3.1772 H         1 UNK         0.0940 
     88 H88        28.0072   27.8098    3.4664 H         1 UNK         0.0703 
     89 H89        26.9328   26.4882    1.1764 H         1 UNK         0.3081 
     90 H90        28.7632   28.2306   -1.2544 H         1 UNK         0.0719 
     91 H91        29.9642   25.7347    0.0370 H         1 UNK         0.0809 
     92 H92        30.1015   26.1052   -1.6842 H         1 UNK         0.0809 
     93 H93        30.8127   27.1770   -0.4874 H         1 UNK         0.0809 
     94 H94        27.7115   25.5733   -1.3213 H         1 UNK         0.2990 
     95 H95        24.2759   26.3983   -1.4762 H         1 UNK         0.0690 
     96 H96        26.0691   25.6533   -3.8524 H         1 UNK         0.0788 
     97 H97        24.9677   27.0232   -3.7999 H         1 UNK         0.0788 
     98 H98        24.3278   25.3894   -3.7438 H         1 UNK         0.0788 
     99 H99        25.6504   23.9760   -2.0598 H         1 UNK         0.2993 
    100 H100       25.3262   22.6166    1.1416 H         1 UNK         0.0949 
    101 H101       26.1071   22.0166   -1.7703 H         1 UNK         0.0767 
    102 H102       25.6684   20.8544   -0.5283 H         1 UNK         0.0767 
    103 H103       24.4640   21.9737   -1.1361 H         1 UNK         0.0767 
    104 H104       27.4943   22.3543    1.5132 H         1 UNK         0.3013 
    105 H105       26.0720   29.0556    0.9222 H         1 UNK         0.3121 
    106 H106       24.8145   31.2348    2.3154 H         1 UNK         0.0774 
    107 H107       24.6187   32.1933    0.0221 H         1 UNK         0.0815 
    108 H108       25.7124   30.9689   -0.6072 H         1 UNK         0.0815 
    109 H109       24.1340   30.5051    0.0268 H         1 UNK         0.0815 
    110 H110       28.1460   30.5859    1.4789 H         1 UNK         0.2987 
    111 H111       28.9649   33.2508    2.4960 H         1 UNK         0.0949 
    112 H112       30.1345   31.8729    0.0135 H         1 UNK         0.0806 
    113 H113       29.1485   33.3353   -0.0093 H         1 UNK         0.0806 
    114 H114       30.7315   33.3549    0.7504 H         1 UNK         0.0806 
    115 H115       28.6018   30.9945    4.0106 H         1 UNK         0.3010 
    116 H116       30.5409   29.0784    4.1639 H         1 UNK         0.0829 
    117 H117       29.7916   28.7748    6.5522 H         1 UNK         0.0813 
    118 H118       28.9586   30.3212    6.4798 H         1 UNK         0.0813 
    119 H119       28.4344   28.9801    5.4668 H         1 UNK         0.0813 
    120 H120       30.9380   32.3504    5.3159 H         1 UNK         0.3038 
    121 H121       33.1579   32.0938    7.0280 H         1 UNK         0.0769 
    122 H122       33.5427   34.5019    6.4496 H         1 UNK         0.0811 
    123 H123       31.8491   34.1894    6.7861 H         1 UNK         0.0811 
    124 H124       32.3998   34.3754    5.1196 H         1 UNK         0.0811 
    125 H125       33.0255   31.7921    3.5065 H         1 UNK         0.3204 
    126 H126       35.8139   32.1507    2.9509 H         1 UNK         0.0748 
    127 H127       35.2453   31.0073    0.8160 H         1 UNK         0.0771 
    128 H128       33.6898   30.5082    1.4664 H         1 UNK         0.0771 
    129 H129       34.0301   32.2173    1.1990 H         1 UNK         0.0771 
    130 H130       34.0507   29.5180    4.4539 H         1 UNK         0.2980 
    131 H131       36.3982   27.6999    4.2662 H         1 UNK         0.0545 
    132 H132       35.6628   30.1943    6.2692 H         1 UNK         0.3459 
    133 H133       36.1346   29.4462    7.7751 H         1 UNK         0.3459 
    134 H134       34.7998   25.9120    5.0277 H         1 UNK         0.0616 
    135 H135       33.4870   27.0594    4.9387 H         1 UNK         0.0616 
    136 H136       32.3427   26.6018    1.3867 H         1 UNK         0.0634 
    137 H137       32.2222   27.6007    2.8147 H         1 UNK         0.0634 
@<TRIPOS>BOND
     1    1    2 1    
     2    1   72 1    
     3    1   73 1    
     4    1   74 1    
     5    2    3 2    
     6    2    4 am   BACKBONE|DICT|INTERRES
     7    4    5 1    
     8    4   75 1    
     9    5    6 1    
    10    5   35 1    
    11    5   76 1    
    12    6    7 1    
    13    6   77 1    
    14    6   78 1    
    15    7    8 1    
    16    8    9 1    
    17    8   79 1    
    18    8   80 1    
    19    9   10 ar   
    20    9   14 ar   
    21   10   11 ar   
    22   10   81 1    
    23   11   12 ar   
    24   11   71 1    
    25   12   13 ar   
    26   12   82 1    
    27   13   14 ar   
    28   13   15 1    
    29   14   83 1    
    30   15   16 1    
    31   15   84 1    
    32   15   85 1    
    33   16   17 1    
    34   17   18 1    
    35   17   86 1    
    36   17   87 1    
    37   18   19 1    
    38   18   37 1    
    39   18   88 1    
    40   19   20 am   BACKBONE|DICT|INTERRES
    41   19   89 1    
    42   20   21 2    
    43   20   22 1    
    44   22   23 1    
    45   22   24 1    
    46   22   90 1    
    47   23   91 1    
    48   23   92 1    
    49   23   93 1    
    50   24   25 am   BACKBONE|DICT|INTERRES
    51   24   94 1    
    52   25   26 2    
    53   25   27 1    
    54   27   28 1    
    55   27   29 1    
    56   27   95 1    
    57   28   96 1    
    58   28   97 1    
    59   28   98 1    
    60   29   30 am   BACKBONE|DICT|INTERRES
    61   29   99 1    
    62   30   31 2    
    63   30   32 1    
    64   32   33 1    
    65   32   34 1    
    66   32  100 1    
    67   33  101 1    
    68   33  102 1    
    69   33  103 1    
    70   34   35 am   BACKBONE|DICT|INTERRES
    71   34  104 1    
    72   35   36 2    
    73   37   38 2    
    74   37   39 am   BACKBONE|DICT|INTERRES
    75   39   40 1    
    76   39  105 1    
    77   40   41 1    
    78   40   42 1    
    79   40  106 1    
    80   41  107 1    
    81   41  108 1    
    82   41  109 1    
    83   42   43 2    
    84   42   44 am   BACKBONE|DICT|INTERRES
    85   44   45 1    
    86   44  110 1    
    87   45   46 1    
    88   45   47 1    
    89   45  111 1    
    90   46  112 1    
    91   46  113 1    
    92   46  114 1    
    93   47   48 2    
    94   47   49 am   BACKBONE|DICT|INTERRES
    95   49   50 1    
    96   49  115 1    
    97   50   51 1    
    98   50   52 1    
    99   50  116 1    
   100   51  117 1    
   101   51  118 1    
   102   51  119 1    
   103   52   53 2    
   104   52   54 am   BACKBONE|DICT|INTERRES
   105   54   55 1    
   106   54  120 1    
   107   55   56 1    
   108   55   57 1    
   109   55  121 1    
   110   56  122 1    
   111   56  123 1    
   112   56  124 1    
   113   57   58 2    
   114   57   59 am   BACKBONE|DICT|INTERRES
   115   59   60 1    
   116   59  125 1    
   117   60   61 1    
   118   60   62 1    
   119   60  126 1    
   120   61  127 1    
   121   61  128 1    
   122   61  129 1    
   123   62   63 2    
   124   62   64 am   BACKBONE|DICT|INTERRES
   125   64   65 1    
   126   64  130 1    
   127   65   66 1    
   128   65   69 1    
   129   65  131 1    
   130   66   67 am   BACKBONE|DICT|INTERRES
   131   66   68 2    
   132   67  132 1    
   133   67  133 1    
   134   69   70 1    
   135   69  134 1    
   136   69  135 1    
   137   70   71 1    
   138   71  136 1    
   139   71  137 1    
@<TRIPOS>SUBSTRUCTURE
     1 UNK         1 GROUP             0       ****    0 ROOT    
