@<TRIPOS>MOLECULE
3R136
137   139    1
SMALL
USER_CHARGES


@<TRIPOS>ATOM
      1 CA         27.4885   20.0089   -2.3253 C.3       0 UNK        -0.1979 
      2 C          28.7103   20.8548   -2.6514 C.2       0 UNK         0.4864 
      3 O          28.8064   21.3917   -3.7557 O.2       0 UNK        -0.5359 
      4 N          29.6452   20.9775   -1.6995 N.am      1 UNK        -0.4318 
      5 CA         30.8744   21.7715   -1.8247 C.3       1 UNK         0.0824 
      6 C6         31.9404   21.3593   -0.7725 C.3       12 UNK        -0.0944 
      7 S7         31.3497   21.3978    0.9584 S.3       12 UNK        -0.2672 
      8 C8         32.0112   23.0000    1.5372 C.3       12 UNK         0.0333 
      9 C9         31.4685   23.4218    2.9017 C.ar      12 UNK        -0.0807 
     10 C10        32.3191   24.0286    3.8329 C.ar      12 UNK        -0.0894 
     11 C11        31.8369   24.4356    5.0822 C.ar      12 UNK        -0.0804 
     12 C12        30.4913   24.2311    5.4000 C.ar      12 UNK        -0.0824 
     13 C13        29.6250   23.6469    4.4728 C.ar      12 UNK        -0.0762 
     14 C14        30.1179   23.2477    3.2281 C.ar      12 UNK        -0.0782 
     15 C15        28.1594   23.4287    4.8153 C.3       12 UNK         0.0230 
     16 S16        27.0798   24.6384    3.9881 S.3       12 UNK        -0.2608 
     17 C17        27.4281   26.1696    4.9208 C.3       12 UNK        -0.0989 
     18 CA         27.8864   27.3343    4.0082 C.3       5 UNK         0.0716 
     19 N          26.8969   27.6226    2.9650 N.am      5 UNK        -0.4135 
     20 C          27.0500   28.4969    1.9655 C.2       4 UNK         0.5031 
     21 O          28.0660   29.1757    1.7830 O.2       4 UNK        -0.5229 
     22 CA         25.8943   28.6063    0.9680 C.3       4 UNK         0.0329 
     23 CB         25.2628   30.0098    0.9833 C.3       4 UNK        -0.2001 
     24 N          26.4482   28.2989   -0.3433 N.am      4 UNK        -0.4303 
     25 C          25.7704   27.8648   -1.4133 C.2       3 UNK         0.5044 
     26 O          24.5442   27.7650   -1.4626 O.2       3 UNK        -0.5152 
     27 CA         26.6204   27.4350   -2.6239 C.3       3 UNK         0.0319 
     28 CB         26.9728   28.6499   -3.4979 C.3       3 UNK        -0.2001 
     29 N          27.8513   26.7635   -2.1945 N.am      3 UNK        -0.4354 
     30 C          27.8950   25.5113   -1.7186 C.2       2 UNK         0.4964 
     31 O          26.9580   24.7116   -1.7733 O.2       2 UNK        -0.5047 
     32 CA         29.1717   25.1287   -0.9671 C.3       2 UNK         0.0288 
     33 CB         28.9455   25.3327    0.5407 C.3       2 UNK        -0.2113 
     34 N          29.5113   23.7283   -1.1975 N.am      2 UNK        -0.4145 
     35 C          30.6274   23.2960   -1.7987 C.2       1 UNK         0.5006 
     36 O          31.4716   24.0453   -2.2938 O.2       1 UNK        -0.5103 
     37 C          28.1503   28.5948    4.8518 C.2       5 UNK         0.5055 
     38 O          27.1891   29.1962    5.3382 O.2       5 UNK        -0.5220 
     39 N          29.4242   28.9867    4.9883 N.am      6 UNK        -0.4450 
     40 CA         29.9485   30.1695    5.6860 C.3       6 UNK         0.0367 
     41 CB         29.5756   30.1700    7.1810 C.3       6 UNK        -0.1929 
     42 C          29.6004   31.5126    5.0164 C.2       6 UNK         0.5070 
     43 O          30.4620   32.3890    4.9541 O.2       6 UNK        -0.5237 
     44 N          28.3600   31.6595    4.5349 N.am      7 UNK        -0.4739 
     45 CA         27.8348   32.8623    3.8871 C.3       7 UNK         0.0276 
     46 CB         26.3065   32.7527    3.7756 C.3       7 UNK        -0.1927 
     47 C          28.4624   33.1438    2.5121 C.2       7 UNK         0.5013 
     48 O          28.7108   34.3095    2.2005 O.2       7 UNK        -0.5193 
     49 N          28.7080   32.0875    1.7255 N.am      8 UNK        -0.4253 
     50 CA         29.3874   32.1594    0.4303 C.3       8 UNK         0.0242 
     51 CB         28.4618   31.6434   -0.6857 C.3       8 UNK        -0.2000 
     52 C          30.6932   31.3607    0.4847 C.2       8 UNK         0.4948 
     53 O          31.7523   31.9058    0.1707 O.2       8 UNK        -0.5275 
     54 N          30.6060   30.0938    0.9091 N.am      9 UNK        -0.4246 
     55 CA         31.7514   29.2161    1.1289 C.3       9 UNK         0.0261 
     56 CB         31.3155   27.7603    0.9041 C.3       9 UNK        -0.1959 
     57 C          32.2754   29.4398    2.5514 C.2       9 UNK         0.5033 
     58 O          31.8427   28.7429    3.4703 O.2       9 UNK        -0.5390 
     59 N          33.1485   30.4430    2.7107 N.am      10 UNK        -0.4215 
     60 CA         33.7668   30.8328    3.9795 C.3       10 UNK         0.0240 
     61 CB         34.6290   32.0876    3.7632 C.3       10 UNK        -0.1982 
     62 C          34.5970   29.6878    4.5845 C.2       10 UNK         0.4970 
     63 O          35.5562   29.2354    3.9553 O.2       10 UNK        -0.4916 
     64 N          34.2012   29.2425    5.7809 N.am      11 UNK        -0.4279 
     65 CA         34.7977   28.0996    6.4905 C.3       11 UNK         0.1003 
     66 C          36.0882   28.4406    7.2904 C.2       11 UNK         0.5709 
     67 N          36.4952   29.7003    7.3976 N.am      11 UNK        -0.7358 
     68 O          36.7413   27.5415    7.8147 O.2       11 UNK        -0.4999 
     69 C69        33.7499   27.3788    7.3809 C.3       12 UNK        -0.0954 
     70 S70        32.3017   26.8120    6.4263 S.3       12 UNK        -0.2268 
     71 C71        32.7689   25.0844    6.0958 C.3       12 UNK         0.0203 
     72 H72        27.3994   19.1884   -3.0368 H         1 UNK         0.0888 
     73 H73        27.5421   19.5840   -1.3230 H         1 UNK         0.0888 
     74 H74        26.5852   20.6154   -2.3888 H         1 UNK         0.0888 
     75 H75        29.5240   20.5112   -0.8107 H         1 UNK         0.3017 
     76 H76        31.2971   21.5558   -2.8086 H         1 UNK         0.0873 
     77 H77        32.2640   20.3379   -0.9788 H         1 UNK         0.0745 
     78 H78        32.8418   21.9684   -0.8688 H         1 UNK         0.0745 
     79 H79        31.7741   23.7812    0.8158 H         1 UNK         0.0705 
     80 H80        33.0995   22.9281    1.5673 H         1 UNK         0.0705 
     81 H81        33.3600   24.1853    3.5848 H         1 UNK         0.1334 
     82 H82        30.1203   24.5390    6.3680 H         1 UNK         0.1417 
     83 H83        29.4420   22.8021    2.5112 H         1 UNK         0.1562 
     84 H84        27.9977   23.4705    5.8937 H         1 UNK         0.0748 
     85 H85        27.8637   22.4257    4.5042 H         1 UNK         0.0748 
     86 H86        28.1830   25.9702    5.6830 H         1 UNK         0.0940 
     87 H87        26.5210   26.4409    5.4652 H         1 UNK         0.0940 
     88 H88        28.8151   27.0409    3.5128 H         1 UNK         0.0703 
     89 H89        26.0333   27.1053    3.0354 H         1 UNK         0.3081 
     90 H90        25.1293   27.8657    1.2119 H         1 UNK         0.0719 
     91 H91        25.9985   30.7905    0.7893 H         1 UNK         0.0809 
     92 H92        24.4757   30.1010    0.2349 H         1 UNK         0.0809 
     93 H93        24.8091   30.2170    1.9527 H         1 UNK         0.0809 
     94 H94        27.4560   28.3428   -0.3878 H         1 UNK         0.2990 
     95 H95        26.0291   26.7401   -3.2244 H         1 UNK         0.0690 
     96 H96        27.5323   28.3508   -4.3845 H         1 UNK         0.0788 
     97 H97        27.5699   29.3844   -2.9559 H         1 UNK         0.0788 
     98 H98        26.0694   29.1556   -3.8420 H         1 UNK         0.0788 
     99 H99        28.6826   27.3346   -2.1450 H         1 UNK         0.2993 
    100 H100       29.9838   25.7800   -1.2956 H         1 UNK         0.0949 
    101 H101       28.6181   26.3486    0.7557 H         1 UNK         0.0767 
    102 H102       28.1815   24.6601    0.9332 H         1 UNK         0.0767 
    103 H103       29.8597   25.1641    1.1063 H         1 UNK         0.0767 
    104 H104       28.8327   23.0483   -0.8864 H         1 UNK         0.3013 
    105 H105       30.1459   28.4827    4.4768 H         1 UNK         0.3121 
    106 H106       31.0325   30.0711    5.6336 H         1 UNK         0.0774 
    107 H107       30.0736   30.9879    7.7030 H         1 UNK         0.0815 
    108 H108       28.5040   30.2941    7.3382 H         1 UNK         0.0815 
    109 H109       29.8822   29.2424    7.6646 H         1 UNK         0.0815 
    110 H110       27.7182   30.8835    4.6764 H         1 UNK         0.2987 
    111 H111       28.0676   33.7139    4.5304 H         1 UNK         0.0949 
    112 H112       25.8839   33.6362    3.2948 H         1 UNK         0.0806 
    113 H113       26.0079   31.8854    3.1880 H         1 UNK         0.0806 
    114 H114       25.8429   32.6663    4.7585 H         1 UNK         0.0806 
    115 H115       28.4742   31.1602    2.0640 H         1 UNK         0.3010 
    116 H116       29.6515   33.1917    0.1910 H         1 UNK         0.0829 
    117 H117       27.5544   32.2434   -0.7528 H         1 UNK         0.0813 
    118 H118       28.9566   31.6954   -1.6563 H         1 UNK         0.0813 
    119 H119       28.1649   30.6077   -0.5274 H         1 UNK         0.0813 
    120 H120       29.6996   29.7297    1.1964 H         1 UNK         0.3038 
    121 H121       32.5470   29.4443    0.4161 H         1 UNK         0.0769 
    122 H122       30.5167   27.4757    1.5886 H         1 UNK         0.0811 
    123 H123       32.1456   27.0722    1.0691 H         1 UNK         0.0811 
    124 H124       30.9627   27.6103   -0.1150 H         1 UNK         0.0811 
    125 H125       33.4089   30.9801    1.8949 H         1 UNK         0.3204 
    126 H126       32.9634   31.0952    4.6695 H         1 UNK         0.0748 
    127 H127       35.0904   32.4101    4.6975 H         1 UNK         0.0771 
    128 H128       35.4323   31.9086    3.0471 H         1 UNK         0.0771 
    129 H129       34.0299   32.9210    3.3950 H         1 UNK         0.0771 
    130 H130       33.3984   29.6609    6.2247 H         1 UNK         0.2980 
    131 H131       35.1166   27.3773    5.7364 H         1 UNK         0.0545 
    132 H132       37.3362   29.9049    7.9141 H         1 UNK         0.3459 
    133 H133       35.9717   30.4453    6.9679 H         1 UNK         0.3459 
    134 H134       33.3964   28.0477    8.1674 H         1 UNK         0.0616 
    135 H135       34.1928   26.5205    7.8898 H         1 UNK         0.0616 
    136 H136       33.8002   25.0561    5.7397 H         1 UNK         0.0634 
    137 H137       32.7439   24.5184    7.0285 H         1 UNK         0.0634 
@<TRIPOS>BOND
     1    1    2 1    
     2    1   72 1    
     3    1   73 1    
     4    1   74 1    
     5    2    3 2    
     6    2    4 am   BACKBONE|DICT|INTERRES
     7    4    5 1    
     8    4   75 1    
     9    5    6 1    
    10    5   35 1    
    11    5   76 1    
    12    6    7 1    
    13    6   77 1    
    14    6   78 1    
    15    7    8 1    
    16    8    9 1    
    17    8   79 1    
    18    8   80 1    
    19    9   10 ar   
    20    9   14 ar   
    21   10   11 ar   
    22   10   81 1    
    23   11   12 ar   
    24   11   71 1    
    25   12   13 ar   
    26   12   82 1    
    27   13   14 ar   
    28   13   15 1    
    29   14   83 1    
    30   15   16 1    
    31   15   84 1    
    32   15   85 1    
    33   16   17 1    
    34   17   18 1    
    35   17   86 1    
    36   17   87 1    
    37   18   19 1    
    38   18   37 1    
    39   18   88 1    
    40   19   20 am   BACKBONE|DICT|INTERRES
    41   19   89 1    
    42   20   21 2    
    43   20   22 1    
    44   22   23 1    
    45   22   24 1    
    46   22   90 1    
    47   23   91 1    
    48   23   92 1    
    49   23   93 1    
    50   24   25 am   BACKBONE|DICT|INTERRES
    51   24   94 1    
    52   25   26 2    
    53   25   27 1    
    54   27   28 1    
    55   27   29 1    
    56   27   95 1    
    57   28   96 1    
    58   28   97 1    
    59   28   98 1    
    60   29   30 am   BACKBONE|DICT|INTERRES
    61   29   99 1    
    62   30   31 2    
    63   30   32 1    
    64   32   33 1    
    65   32   34 1    
    66   32  100 1    
    67   33  101 1    
    68   33  102 1    
    69   33  103 1    
    70   34   35 am   BACKBONE|DICT|INTERRES
    71   34  104 1    
    72   35   36 2    
    73   37   38 2    
    74   37   39 am   BACKBONE|DICT|INTERRES
    75   39   40 1    
    76   39  105 1    
    77   40   41 1    
    78   40   42 1    
    79   40  106 1    
    80   41  107 1    
    81   41  108 1    
    82   41  109 1    
    83   42   43 2    
    84   42   44 am   BACKBONE|DICT|INTERRES
    85   44   45 1    
    86   44  110 1    
    87   45   46 1    
    88   45   47 1    
    89   45  111 1    
    90   46  112 1    
    91   46  113 1    
    92   46  114 1    
    93   47   48 2    
    94   47   49 am   BACKBONE|DICT|INTERRES
    95   49   50 1    
    96   49  115 1    
    97   50   51 1    
    98   50   52 1    
    99   50  116 1    
   100   51  117 1    
   101   51  118 1    
   102   51  119 1    
   103   52   53 2    
   104   52   54 am   BACKBONE|DICT|INTERRES
   105   54   55 1    
   106   54  120 1    
   107   55   56 1    
   108   55   57 1    
   109   55  121 1    
   110   56  122 1    
   111   56  123 1    
   112   56  124 1    
   113   57   58 2    
   114   57   59 am   BACKBONE|DICT|INTERRES
   115   59   60 1    
   116   59  125 1    
   117   60   61 1    
   118   60   62 1    
   119   60  126 1    
   120   61  127 1    
   121   61  128 1    
   122   61  129 1    
   123   62   63 2    
   124   62   64 am   BACKBONE|DICT|INTERRES
   125   64   65 1    
   126   64  130 1    
   127   65   66 1    
   128   65   69 1    
   129   65  131 1    
   130   66   67 am   BACKBONE|DICT|INTERRES
   131   66   68 2    
   132   67  132 1    
   133   67  133 1    
   134   69   70 1    
   135   69  134 1    
   136   69  135 1    
   137   70   71 1    
   138   71  136 1    
   139   71  137 1    
@<TRIPOS>SUBSTRUCTURE
     1 UNK         1 GROUP             0       ****    0 ROOT    
