@<TRIPOS>MOLECULE
3R136
137   139    1
SMALL
USER_CHARGES


@<TRIPOS>ATOM
      1 CA         29.7308   29.0919   -1.8165 C.3       0 UNK        -0.1979 
      2 C          29.4596   27.8514   -0.9814 C.2       0 UNK         0.4864 
      3 O          28.4715   27.8101   -0.2469 O.2       0 UNK        -0.5359 
      4 N          30.3290   26.8388   -1.1071 N.am      1 UNK        -0.4318 
      5 CA         30.2156   25.5221   -0.4686 C.3       1 UNK         0.0824 
      6 C6         31.4682   24.6466   -0.7324 C.3       12 UNK        -0.0944 
      7 S7         32.9738   25.3071    0.0609 S.3       12 UNK        -0.2672 
      8 C8         33.2679   24.0878    1.3854 C.3       12 UNK         0.0333 
      9 C9         32.3510   24.3312    2.5739 C.ar      12 UNK        -0.0807 
     10 C10        32.7945   25.0928    3.6568 C.ar      12 UNK        -0.0894 
     11 C11        31.9361   25.3759    4.7220 C.ar      12 UNK        -0.0804 
     12 C12        30.6341   24.8659    4.7140 C.ar      12 UNK        -0.0824 
     13 C13        30.1693   24.1121    3.6269 C.ar      12 UNK        -0.0762 
     14 C14        31.0471   23.8299    2.5773 C.ar      12 UNK        -0.0782 
     15 C15        28.7364   23.5890    3.5088 C.3       12 UNK         0.0230 
     16 S16        27.5329   24.2012    4.7369 S.3       12 UNK        -0.2608 
     17 C17        27.4072   26.0050    4.4414 C.3       12 UNK        -0.0989 
     18 CA         27.3331   26.5213    2.9692 C.3       5 UNK         0.0716 
     19 N          26.3868   25.7861    2.1186 N.am      5 UNK        -0.4135 
     20 C          25.0828   25.5746    2.3514 C.2       4 UNK         0.5031 
     21 O          24.4865   25.9776    3.3518 O.2       4 UNK        -0.5229 
     22 CA         24.3111   24.8194    1.2479 C.3       4 UNK         0.0329 
     23 CB         22.7816   24.8742    1.4464 C.3       4 UNK        -0.2001 
     24 N          24.6584   25.2620   -0.1099 N.am      4 UNK        -0.4303 
     25 C          24.6480   26.5172   -0.5842 C.2       3 UNK         0.5044 
     26 O          24.3321   27.4905    0.0976 O.2       3 UNK        -0.5152 
     27 CA         25.0944   26.7257   -2.0467 C.3       3 UNK         0.0319 
     28 CB         25.3840   28.2060   -2.3634 C.3       3 UNK        -0.2001 
     29 N          26.2819   25.9368   -2.3803 N.am      3 UNK        -0.4354 
     30 C          26.2940   24.6313   -2.6814 C.2       2 UNK         0.4964 
     31 O          25.2771   23.9403   -2.7434 O.2       2 UNK        -0.5047 
     32 CA         27.6642   23.9701   -2.9038 C.3       2 UNK         0.0288 
     33 CB         27.9635   23.8496   -4.4069 C.3       2 UNK        -0.2113 
     34 N          28.7762   24.6630   -2.2464 N.am      2 UNK        -0.4145 
     35 C          28.9403   24.7859   -0.9198 C.2       1 UNK         0.5006 
     36 O          28.1353   24.3783   -0.0793 O.2       1 UNK        -0.5103 
     37 C          27.1143   28.0589    2.9830 C.2       5 UNK         0.5055 
     38 O          27.8718   28.7434    3.6734 O.2       5 UNK        -0.5220 
     39 N          26.0977   28.5963    2.2852 N.am      6 UNK        -0.4450 
     40 CA         25.5693   29.9548    2.4941 C.3       6 UNK         0.0367 
     41 CB         24.3023   30.1616    1.6503 C.3       6 UNK        -0.1929 
     42 C          26.5517   31.1135    2.2532 C.2       6 UNK         0.5070 
     43 O          26.3731   32.1749    2.8524 O.2       6 UNK        -0.5237 
     44 N          27.5592   30.9030    1.3999 N.am      7 UNK        -0.4739 
     45 CA         28.6196   31.8748    1.1180 C.3       7 UNK         0.0276 
     46 CB         28.4261   32.4351   -0.3035 C.3       7 UNK        -0.1927 
     47 C          30.0135   31.2607    1.3271 C.2       7 UNK         0.5013 
     48 O          30.9909   31.7709    0.7763 O.2       7 UNK        -0.5193 
     49 N          30.0953   30.1631    2.0910 N.am      8 UNK        -0.4253 
     50 CA         31.3241   29.4088    2.3139 C.3       8 UNK         0.0242 
     51 CB         30.9628   27.9512    2.6204 C.3       8 UNK        -0.2000 
     52 C          32.1698   30.0453    3.4275 C.2       8 UNK         0.4948 
     53 O          32.0805   29.6401    4.5872 O.2       8 UNK        -0.5275 
     54 N          32.9942   31.0302    3.0514 N.am      9 UNK        -0.4246 
     55 CA         33.9426   31.7104    3.9420 C.3       9 UNK         0.0261 
     56 CB         34.4440   32.9900    3.2527 C.3       9 UNK        -0.1959 
     57 C          35.1340   30.8329    4.3795 C.2       9 UNK         0.5033 
     58 O          35.8231   31.1925    5.3351 O.2       9 UNK        -0.5390 
     59 N          35.3599   29.7083    3.6831 N.am      10 UNK        -0.4215 
     60 CA         36.4737   28.7705    3.8676 C.3       10 UNK         0.0240 
     61 CB         36.3556   27.6472    2.8235 C.3       10 UNK        -0.1982 
     62 C          36.6165   28.1737    5.2811 C.2       10 UNK         0.4970 
     63 O          37.7328   27.8189    5.6622 O.2       10 UNK        -0.4916 
     64 N          35.5104   28.0807    6.0307 N.am      11 UNK        -0.4279 
     65 CA         35.5035   27.6551    7.4410 C.3       11 UNK         0.1003 
     66 C          35.9645   28.7599    8.4387 C.2       11 UNK         0.5709 
     67 N          36.1758   30.0043    8.0229 N.am      11 UNK        -0.7358 
     68 O          36.1476   28.4772    9.6206 O.2       11 UNK        -0.4999 
     69 C69        34.1382   27.0502    7.8653 C.3       12 UNK        -0.0954 
     70 S70        33.6733   25.5858    6.8804 S.3       12 UNK        -0.2268 
     71 C71        32.3880   26.3160    5.8272 C.3       12 UNK         0.0203 
     72 H72        30.2408   29.8458   -1.2197 H         1 UNK         0.0888 
     73 H73        28.7944   29.5119   -2.1821 H         1 UNK         0.0888 
     74 H74        30.3544   28.8651   -2.6810 H         1 UNK         0.0888 
     75 H75        31.1407   26.9613   -1.6959 H         1 UNK         0.3017 
     76 H76        30.1234   25.6778    0.6066 H         1 UNK         0.0873 
     77 H77        31.3096   23.6195   -0.4013 H         1 UNK         0.0745 
     78 H78        31.6648   24.5739   -1.8037 H         1 UNK         0.0745 
     79 H79        33.1402   23.0740    1.0030 H         1 UNK         0.0705 
     80 H80        34.3103   24.1616    1.6994 H         1 UNK         0.0705 
     81 H81        33.7954   25.5007    3.6558 H         1 UNK         0.1334 
     82 H82        29.9829   25.0896    5.5456 H         1 UNK         0.1417 
     83 H83        30.6981   23.2376    1.7436 H         1 UNK         0.1562 
     84 H84        28.7674   22.5019    3.5918 H         1 UNK         0.0748 
     85 H85        28.3519   23.8021    2.5118 H         1 UNK         0.0748 
     86 H86        28.2502   26.4760    4.9490 H         1 UNK         0.0940 
     87 H87        26.5281   26.3407    4.9951 H         1 UNK         0.0940 
     88 H88        28.3098   26.3644    2.5113 H         1 UNK         0.0703 
     89 H89        26.7815   25.4192    1.2591 H         1 UNK         0.3081 
     90 H90        24.6196   23.7755    1.3219 H         1 UNK         0.0719 
     91 H91        22.4084   25.8986    1.4166 H         1 UNK         0.0809 
     92 H92        22.2606   24.3050    0.6766 H         1 UNK         0.0809 
     93 H93        22.4954   24.4507    2.4100 H         1 UNK         0.0809 
     94 H94        24.9264   24.5324   -0.7610 H         1 UNK         0.2990 
     95 H95        24.2669   26.4034   -2.6820 H         1 UNK         0.0690 
     96 H96        25.6861   28.3396   -3.4022 H         1 UNK         0.0788 
     97 H97        26.1755   28.6057   -1.7278 H         1 UNK         0.0788 
     98 H98        24.4975   28.8216   -2.2049 H         1 UNK         0.0788 
     99 H99        27.1685   26.4110   -2.2910 H         1 UNK         0.2993 
    100 H100       27.6064   22.9638   -2.4827 H         1 UNK         0.0949 
    101 H101       27.1659   23.3122   -4.9222 H         1 UNK         0.0767 
    102 H102       28.0559   24.8279   -4.8806 H         1 UNK         0.0767 
    103 H103       28.8880   23.2999   -4.5853 H         1 UNK         0.0767 
    104 H104       29.4836   25.0514   -2.8533 H         1 UNK         0.3013 
    105 H105       25.5418   27.9958    1.6843 H         1 UNK         0.3121 
    106 H106       25.2769   30.0122    3.5447 H         1 UNK         0.0774 
    107 H107       24.5189   30.1079    0.5827 H         1 UNK         0.0815 
    108 H108       23.8576   31.1390    1.8425 H         1 UNK         0.0815 
    109 H109       23.5441   29.4127    1.8800 H         1 UNK         0.0815 
    110 H110       27.6410   29.9938    0.9603 H         1 UNK         0.2987 
    111 H111       28.5673   32.7125    1.8167 H         1 UNK         0.0949 
    112 H112       28.4834   31.6528   -1.0590 H         1 UNK         0.0806 
    113 H113       27.4567   32.9234   -0.4039 H         1 UNK         0.0806 
    114 H114       29.1858   33.1802   -0.5433 H         1 UNK         0.0806 
    115 H115       29.2656   29.8298    2.5723 H         1 UNK         0.3010 
    116 H116       31.9105   29.4055    1.3919 H         1 UNK         0.0829 
    117 H117       30.2909   27.5462    1.8687 H         1 UNK         0.0813 
    118 H118       31.8612   27.3386    2.6130 H         1 UNK         0.0813 
    119 H119       30.4814   27.8344    3.5921 H         1 UNK         0.0813 
    120 H120       32.9522   31.3505    2.0917 H         1 UNK         0.3038 
    121 H121       33.4071   31.9994    4.8490 H         1 UNK         0.0769 
    122 H122       34.9830   32.7681    2.3307 H         1 UNK         0.0811 
    123 H123       35.1239   33.5434    3.9023 H         1 UNK         0.0811 
    124 H124       33.6185   33.6586    3.0074 H         1 UNK         0.0811 
    125 H125       34.7359   29.5115    2.9154 H         1 UNK         0.3204 
    126 H126       37.3922   29.3257    3.6670 H         1 UNK         0.0748 
    127 H127       37.1720   26.9303    2.9235 H         1 UNK         0.0771 
    128 H128       35.4218   27.0945    2.9288 H         1 UNK         0.0771 
    129 H129       36.3990   28.0415    1.8079 H         1 UNK         0.0771 
    130 H130       34.6358   28.4159    5.6562 H         1 UNK         0.2980 
    131 H131       36.2410   26.8567    7.5436 H         1 UNK         0.0545 
    132 H132       36.4790   30.6956    8.6897 H         1 UNK         0.3459 
    133 H133       36.0422   30.2710    7.0524 H         1 UNK         0.3459 
    134 H134       34.1718   26.7303    8.9084 H         1 UNK         0.0616 
    135 H135       33.3510   27.8043    7.8083 H         1 UNK         0.0616 
    136 H136       31.5447   26.6207    6.4491 H         1 UNK         0.0634 
    137 H137       32.7769   27.2250    5.3692 H         1 UNK         0.0634 
@<TRIPOS>BOND
     1    1    2 1    
     2    1   72 1    
     3    1   73 1    
     4    1   74 1    
     5    2    3 2    
     6    2    4 am   BACKBONE|DICT|INTERRES
     7    4    5 1    
     8    4   75 1    
     9    5    6 1    
    10    5   35 1    
    11    5   76 1    
    12    6    7 1    
    13    6   77 1    
    14    6   78 1    
    15    7    8 1    
    16    8    9 1    
    17    8   79 1    
    18    8   80 1    
    19    9   10 ar   
    20    9   14 ar   
    21   10   11 ar   
    22   10   81 1    
    23   11   12 ar   
    24   11   71 1    
    25   12   13 ar   
    26   12   82 1    
    27   13   14 ar   
    28   13   15 1    
    29   14   83 1    
    30   15   16 1    
    31   15   84 1    
    32   15   85 1    
    33   16   17 1    
    34   17   18 1    
    35   17   86 1    
    36   17   87 1    
    37   18   19 1    
    38   18   37 1    
    39   18   88 1    
    40   19   20 am   BACKBONE|DICT|INTERRES
    41   19   89 1    
    42   20   21 2    
    43   20   22 1    
    44   22   23 1    
    45   22   24 1    
    46   22   90 1    
    47   23   91 1    
    48   23   92 1    
    49   23   93 1    
    50   24   25 am   BACKBONE|DICT|INTERRES
    51   24   94 1    
    52   25   26 2    
    53   25   27 1    
    54   27   28 1    
    55   27   29 1    
    56   27   95 1    
    57   28   96 1    
    58   28   97 1    
    59   28   98 1    
    60   29   30 am   BACKBONE|DICT|INTERRES
    61   29   99 1    
    62   30   31 2    
    63   30   32 1    
    64   32   33 1    
    65   32   34 1    
    66   32  100 1    
    67   33  101 1    
    68   33  102 1    
    69   33  103 1    
    70   34   35 am   BACKBONE|DICT|INTERRES
    71   34  104 1    
    72   35   36 2    
    73   37   38 2    
    74   37   39 am   BACKBONE|DICT|INTERRES
    75   39   40 1    
    76   39  105 1    
    77   40   41 1    
    78   40   42 1    
    79   40  106 1    
    80   41  107 1    
    81   41  108 1    
    82   41  109 1    
    83   42   43 2    
    84   42   44 am   BACKBONE|DICT|INTERRES
    85   44   45 1    
    86   44  110 1    
    87   45   46 1    
    88   45   47 1    
    89   45  111 1    
    90   46  112 1    
    91   46  113 1    
    92   46  114 1    
    93   47   48 2    
    94   47   49 am   BACKBONE|DICT|INTERRES
    95   49   50 1    
    96   49  115 1    
    97   50   51 1    
    98   50   52 1    
    99   50  116 1    
   100   51  117 1    
   101   51  118 1    
   102   51  119 1    
   103   52   53 2    
   104   52   54 am   BACKBONE|DICT|INTERRES
   105   54   55 1    
   106   54  120 1    
   107   55   56 1    
   108   55   57 1    
   109   55  121 1    
   110   56  122 1    
   111   56  123 1    
   112   56  124 1    
   113   57   58 2    
   114   57   59 am   BACKBONE|DICT|INTERRES
   115   59   60 1    
   116   59  125 1    
   117   60   61 1    
   118   60   62 1    
   119   60  126 1    
   120   61  127 1    
   121   61  128 1    
   122   61  129 1    
   123   62   63 2    
   124   62   64 am   BACKBONE|DICT|INTERRES
   125   64   65 1    
   126   64  130 1    
   127   65   66 1    
   128   65   69 1    
   129   65  131 1    
   130   66   67 am   BACKBONE|DICT|INTERRES
   131   66   68 2    
   132   67  132 1    
   133   67  133 1    
   134   69   70 1    
   135   69  134 1    
   136   69  135 1    
   137   70   71 1    
   138   71  136 1    
   139   71  137 1    
@<TRIPOS>SUBSTRUCTURE
     1 UNK         1 GROUP             0       ****    0 ROOT    
