@<TRIPOS>MOLECULE
3R136
137   139    1
SMALL
USER_CHARGES


@<TRIPOS>ATOM
      1 CA         27.3244   28.4693    5.9194 C.3       0 UNK        -0.1979 
      2 C          27.2537   27.1973    5.0911 C.2       0 UNK         0.4864 
      3 O          26.5817   26.2452    5.4879 O.2       0 UNK        -0.5359 
      4 N          27.9095   27.1876    3.9247 N.am      1 UNK        -0.4318 
      5 CA         27.9264   26.0731    2.9672 C.3       1 UNK         0.0824 
      6 C6         29.3278   25.9075    2.3240 C.3       12 UNK        -0.0944 
      7 S7         30.6197   25.5461    3.5648 S.3       12 UNK        -0.2672 
      8 C8         31.7135   24.3989    2.6666 C.3       12 UNK         0.0333 
      9 C9         32.5828   25.1329    1.6559 C.ar      12 UNK        -0.0807 
     10 C10        33.7929   25.7059    2.0560 C.ar      12 UNK        -0.0894 
     11 C11        34.5876   26.4017    1.1397 C.ar      12 UNK        -0.0804 
     12 C12        34.1581   26.5287   -0.1857 C.ar      12 UNK        -0.0824 
     13 C13        32.9551   25.9478   -0.6029 C.ar      12 UNK        -0.0762 
     14 C14        32.1831   25.2353    0.3213 C.ar      12 UNK        -0.0782 
     15 C15        32.5037   26.0728   -2.0541 C.3       12 UNK         0.0230 
     16 S16        31.2106   27.3422   -2.2717 S.3       12 UNK        -0.2608 
     17 C17        29.7550   26.4884   -1.5803 C.3       12 UNK        -0.0989 
     18 CA         28.4058   26.8747   -2.2385 C.3       5 UNK         0.0716 
     19 N          27.4132   25.8307   -1.9884 N.am      5 UNK        -0.4135 
     20 C          27.2372   24.7498   -2.7556 C.2       4 UNK         0.5031 
     21 O          27.8158   24.5889   -3.8317 O.2       4 UNK        -0.5229 
     22 CA         26.3004   23.6342   -2.2618 C.3       4 UNK         0.0329 
     23 CB         27.1116   22.3840   -1.8735 C.3       4 UNK        -0.2001 
     24 N          25.4419   24.0105   -1.1324 N.am      4 UNK        -0.4303 
     25 C          24.1619   23.6242   -1.0103 C.2       3 UNK         0.5044 
     26 O          23.5571   22.9832   -1.8716 O.2       3 UNK        -0.5152 
     27 CA         23.4177   23.9741    0.2936 C.3       3 UNK         0.0319 
     28 CB         23.4048   22.7632    1.2410 C.3       3 UNK        -0.2001 
     29 N          23.9686   25.1263    1.0058 N.am      3 UNK        -0.4354 
     30 C          23.9196   26.3909    0.5683 C.2       2 UNK         0.4964 
     31 O          23.3367   26.7341   -0.4607 O.2       2 UNK        -0.5047 
     32 CA         24.6365   27.4577    1.4152 C.3       2 UNK         0.0288 
     33 CB         23.6220   28.1854    2.3134 C.3       2 UNK        -0.2113 
     34 N          25.7525   26.9940    2.2524 N.am      2 UNK        -0.4145 
     35 C          26.8082   26.2359    1.9080 C.2       1 UNK         0.5006 
     36 O          26.9125   25.6686    0.8175 O.2       1 UNK        -0.5103 
     37 C          27.8717   28.2142   -1.7045 C.2       5 UNK         0.5055 
     38 O          26.9188   28.2332   -0.9260 O.2       5 UNK        -0.5220 
     39 N          28.5191   29.3145   -2.1029 N.am      6 UNK        -0.4450 
     40 CA         28.2798   30.6553   -1.5583 C.3       6 UNK         0.0367 
     41 CB         28.6251   31.6945   -2.6388 C.3       6 UNK        -0.1929 
     42 C          29.0848   30.9274   -0.2699 C.2       6 UNK         0.5070 
     43 O          28.8791   31.9677    0.3564 O.2       6 UNK        -0.5237 
     44 N          30.0140   30.0254    0.0758 N.am      7 UNK        -0.4739 
     45 CA         30.9480   30.1456    1.1942 C.3       7 UNK         0.0276 
     46 CB         31.9780   29.0124    1.0921 C.3       7 UNK        -0.1927 
     47 C          30.2756   30.1280    2.5783 C.2       7 UNK         0.5013 
     48 O          29.2895   29.4152    2.7881 O.2       7 UNK        -0.5193 
     49 N          30.8675   30.8865    3.5081 N.am      8 UNK        -0.4253 
     50 CA         30.5293   30.8908    4.9307 C.3       8 UNK         0.0242 
     51 CB         30.9999   32.2218    5.5423 C.3       8 UNK        -0.2000 
     52 C          31.1961   29.7089    5.6533 C.2       8 UNK         0.4948 
     53 O          32.1747   29.1539    5.1509 O.2       8 UNK        -0.5275 
     54 N          30.7104   29.3957    6.8631 N.am      9 UNK        -0.4246 
     55 CA         31.2269   28.3213    7.7264 C.3       9 UNK         0.0261 
     56 CB         30.3325   28.1967    8.9717 C.3       9 UNK        -0.1959 
     57 C          32.7035   28.4801    8.1468 C.2       9 UNK         0.5033 
     58 O          33.3330   27.4900    8.5205 O.2       9 UNK        -0.5390 
     59 N          33.2301   29.7102    8.0725 N.am      10 UNK        -0.4215 
     60 CA         34.6355   30.0458    8.3055 C.3       10 UNK         0.0240 
     61 CB         34.7522   31.5644    8.5205 C.3       10 UNK        -0.1982 
     62 C          35.5846   29.5881    7.1788 C.2       10 UNK         0.4970 
     63 O          36.7944   29.5593    7.4091 O.2       10 UNK        -0.4916 
     64 N          35.0503   29.2652    5.9911 N.am      11 UNK        -0.4279 
     65 CA         35.8111   28.7603    4.8400 C.3       11 UNK         0.1003 
     66 C          36.4409   27.3694    5.1280 C.2       11 UNK         0.5709 
     67 N          37.7294   27.1983    4.8636 N.am      11 UNK        -0.7358 
     68 O          35.7617   26.4373    5.5536 O.2       11 UNK        -0.4999 
     69 C69        34.9182   28.7396    3.5729 C.3       12 UNK        -0.0954 
     70 S70        35.8500   28.7447    2.0039 S.3       12 UNK        -0.2268 
     71 C71        35.9304   26.9758    1.5711 C.3       12 UNK         0.0203 
     72 H72        26.3339   28.7362    6.2872 H         1 UNK         0.0888 
     73 H73        27.9776   28.3201    6.7766 H         1 UNK         0.0888 
     74 H74        27.7003   29.3068    5.3340 H         1 UNK         0.0888 
     75 H75        28.4269   28.0129    3.6209 H         1 UNK         0.3017 
     76 H76        27.7015   25.1428    3.4930 H         1 UNK         0.0873 
     77 H77        29.6089   26.8164    1.7921 H         1 UNK         0.0745 
     78 H78        29.3176   25.1024    1.5876 H         1 UNK         0.0745 
     79 H79        31.1218   23.6215    2.1808 H         1 UNK         0.0705 
     80 H80        32.3494   23.8862    3.3899 H         1 UNK         0.0705 
     81 H81        34.1153   25.6093    3.0841 H         1 UNK         0.1334 
     82 H82        34.7683   27.0719   -0.8944 H         1 UNK         0.1417 
     83 H83        31.2622   24.7658    0.0095 H         1 UNK         0.1562 
     84 H84        32.1484   25.1089   -2.4215 H         1 UNK         0.0748 
     85 H85        33.3524   26.3369   -2.6869 H         1 UNK         0.0748 
     86 H86        29.7247   26.6451   -0.5021 H         1 UNK         0.0940 
     87 H87        29.9160   25.4188   -1.7201 H         1 UNK         0.0940 
     88 H88        28.5396   26.9847   -3.3171 H         1 UNK         0.0703 
     89 H89        26.9188   25.9352   -1.1071 H         1 UNK         0.3081 
     90 H90        25.6802   23.3803   -3.1241 H         1 UNK         0.0719 
     91 H91        27.7581   22.0624   -2.6912 H         1 UNK         0.0809 
     92 H92        27.7475   22.5726   -1.0076 H         1 UNK         0.0809 
     93 H93        26.4573   21.5459   -1.6329 H         1 UNK         0.0809 
     94 H94        25.8736   24.5297   -0.3730 H         1 UNK         0.2990 
     95 H95        22.3850   24.2079    0.0258 H         1 UNK         0.0690 
     96 H96        22.8117   22.9627    2.1337 H         1 UNK         0.0788 
     97 H97        24.4116   22.4886    1.5589 H         1 UNK         0.0788 
     98 H98        22.9682   21.8903    0.7533 H         1 UNK         0.0788 
     99 H99        24.4676   24.9384    1.8628 H         1 UNK         0.2993 
    100 H100       25.0427   28.1908    0.7189 H         1 UNK         0.0949 
    101 H101       22.7861   28.5722    1.7283 H         1 UNK         0.0767 
    102 H102       23.2086   27.5215    3.0738 H         1 UNK         0.0767 
    103 H103       24.0778   29.0363    2.8204 H         1 UNK         0.0767 
    104 H104       25.7722   27.3715    3.1881 H         1 UNK         0.3013 
    105 H105       29.3006   29.2141   -2.7371 H         1 UNK         0.3121 
    106 H106       27.2216   30.7635   -1.3097 H         1 UNK         0.0774 
    107 H107       28.4224   32.7070   -2.2866 H         1 UNK         0.0815 
    108 H108       29.6785   31.6523   -2.9187 H         1 UNK         0.0815 
    109 H109       28.0306   31.5429   -3.5398 H         1 UNK         0.0815 
    110 H110       30.1044   29.1974   -0.4932 H         1 UNK         0.2987 
    111 H111       31.4709   31.0975    1.0780 H         1 UNK         0.0949 
    112 H112       32.6874   29.0511    1.9167 H         1 UNK         0.0806 
    113 H113       32.5539   29.0751    0.1688 H         1 UNK         0.0806 
    114 H114       31.5063   28.0308    1.1269 H         1 UNK         0.0806 
    115 H115       31.7026   31.3928    3.2534 H         1 UNK         0.3010 
    116 H116       29.4467   30.8142    5.0408 H         1 UNK         0.0829 
    117 H117       32.0835   32.3350    5.4837 H         1 UNK         0.0813 
    118 H118       30.5479   33.0727    5.0318 H         1 UNK         0.0813 
    119 H119       30.7202   32.2966    6.5939 H         1 UNK         0.0813 
    120 H120       29.9328   29.9275    7.2273 H         1 UNK         0.3038 
    121 H121       31.1579   27.3896    7.1604 H         1 UNK         0.0769 
    122 H122       30.6884   27.4027    9.6300 H         1 UNK         0.0811 
    123 H123       29.3049   27.9507    8.7068 H         1 UNK         0.0811 
    124 H124       30.3200   29.1189    9.5541 H         1 UNK         0.0811 
    125 H125       32.6289   30.4616    7.7694 H         1 UNK         0.3204 
    126 H126       34.9570   29.5454    9.2215 H         1 UNK         0.0748 
    127 H127       35.7826   31.8511    8.7362 H         1 UNK         0.0771 
    128 H128       34.4370   32.1232    7.6382 H         1 UNK         0.0771 
    129 H129       34.1446   31.8945    9.3635 H         1 UNK         0.0771 
    130 H130       34.0418   29.2704    5.8774 H         1 UNK         0.2980 
    131 H131       36.6176   29.4763    4.6689 H         1 UNK         0.0545 
    132 H132       38.2914   27.9547    4.5057 H         1 UNK         0.3459 
    133 H133       38.1503   26.2992    5.0363 H         1 UNK         0.3459 
    134 H134       34.2030   27.9179    3.6030 H         1 UNK         0.0616 
    135 H135       34.3134   29.6472    3.5506 H         1 UNK         0.0616 
    136 H136       36.6492   26.8554    0.7593 H         1 UNK         0.0634 
    137 H137       36.3340   26.4070    2.4086 H         1 UNK         0.0634 
@<TRIPOS>BOND
     1    1    2 1    
     2    1   72 1    
     3    1   73 1    
     4    1   74 1    
     5    2    3 2    
     6    2    4 am   BACKBONE|DICT|INTERRES
     7    4    5 1    
     8    4   75 1    
     9    5    6 1    
    10    5   35 1    
    11    5   76 1    
    12    6    7 1    
    13    6   77 1    
    14    6   78 1    
    15    7    8 1    
    16    8    9 1    
    17    8   79 1    
    18    8   80 1    
    19    9   10 ar   
    20    9   14 ar   
    21   10   11 ar   
    22   10   81 1    
    23   11   12 ar   
    24   11   71 1    
    25   12   13 ar   
    26   12   82 1    
    27   13   14 ar   
    28   13   15 1    
    29   14   83 1    
    30   15   16 1    
    31   15   84 1    
    32   15   85 1    
    33   16   17 1    
    34   17   18 1    
    35   17   86 1    
    36   17   87 1    
    37   18   19 1    
    38   18   37 1    
    39   18   88 1    
    40   19   20 am   BACKBONE|DICT|INTERRES
    41   19   89 1    
    42   20   21 2    
    43   20   22 1    
    44   22   23 1    
    45   22   24 1    
    46   22   90 1    
    47   23   91 1    
    48   23   92 1    
    49   23   93 1    
    50   24   25 am   BACKBONE|DICT|INTERRES
    51   24   94 1    
    52   25   26 2    
    53   25   27 1    
    54   27   28 1    
    55   27   29 1    
    56   27   95 1    
    57   28   96 1    
    58   28   97 1    
    59   28   98 1    
    60   29   30 am   BACKBONE|DICT|INTERRES
    61   29   99 1    
    62   30   31 2    
    63   30   32 1    
    64   32   33 1    
    65   32   34 1    
    66   32  100 1    
    67   33  101 1    
    68   33  102 1    
    69   33  103 1    
    70   34   35 am   BACKBONE|DICT|INTERRES
    71   34  104 1    
    72   35   36 2    
    73   37   38 2    
    74   37   39 am   BACKBONE|DICT|INTERRES
    75   39   40 1    
    76   39  105 1    
    77   40   41 1    
    78   40   42 1    
    79   40  106 1    
    80   41  107 1    
    81   41  108 1    
    82   41  109 1    
    83   42   43 2    
    84   42   44 am   BACKBONE|DICT|INTERRES
    85   44   45 1    
    86   44  110 1    
    87   45   46 1    
    88   45   47 1    
    89   45  111 1    
    90   46  112 1    
    91   46  113 1    
    92   46  114 1    
    93   47   48 2    
    94   47   49 am   BACKBONE|DICT|INTERRES
    95   49   50 1    
    96   49  115 1    
    97   50   51 1    
    98   50   52 1    
    99   50  116 1    
   100   51  117 1    
   101   51  118 1    
   102   51  119 1    
   103   52   53 2    
   104   52   54 am   BACKBONE|DICT|INTERRES
   105   54   55 1    
   106   54  120 1    
   107   55   56 1    
   108   55   57 1    
   109   55  121 1    
   110   56  122 1    
   111   56  123 1    
   112   56  124 1    
   113   57   58 2    
   114   57   59 am   BACKBONE|DICT|INTERRES
   115   59   60 1    
   116   59  125 1    
   117   60   61 1    
   118   60   62 1    
   119   60  126 1    
   120   61  127 1    
   121   61  128 1    
   122   61  129 1    
   123   62   63 2    
   124   62   64 am   BACKBONE|DICT|INTERRES
   125   64   65 1    
   126   64  130 1    
   127   65   66 1    
   128   65   69 1    
   129   65  131 1    
   130   66   67 am   BACKBONE|DICT|INTERRES
   131   66   68 2    
   132   67  132 1    
   133   67  133 1    
   134   69   70 1    
   135   69  134 1    
   136   69  135 1    
   137   70   71 1    
   138   71  136 1    
   139   71  137 1    
@<TRIPOS>SUBSTRUCTURE
     1 UNK         1 GROUP             0       ****    0 ROOT    
