@<TRIPOS>MOLECULE
3R136
137   139    1
SMALL
USER_CHARGES


@<TRIPOS>ATOM
      1 CA         30.5267   26.6552   -3.0959 C.3       0 UNK        -0.1979 
      2 C          29.4558   25.7022   -2.5853 C.2       0 UNK         0.4864 
      3 O          28.3177   25.7570   -3.0505 O.2       0 UNK        -0.5359 
      4 N          29.8114   24.8388   -1.6262 N.am      1 UNK        -0.4318 
      5 CA         28.9377   23.8141   -1.0429 C.3       1 UNK         0.0824 
      6 C6         29.5353   23.2720    0.2791 C.3       12 UNK        -0.0944 
      7 S7         29.6142   24.5565    1.5708 S.3       12 UNK        -0.2672 
      8 C8         30.1000   23.5331    2.9939 C.3       12 UNK         0.0333 
      9 C9         30.4762   24.3907    4.1918 C.ar      12 UNK        -0.0807 
     10 C10        31.8204   24.6080    4.5099 C.ar      12 UNK        -0.0894 
     11 C11        32.1724   25.3894    5.6155 C.ar      12 UNK        -0.0804 
     12 C12        31.1626   25.9650    6.3937 C.ar      12 UNK        -0.0824 
     13 C13        29.8132   25.7620    6.0863 C.ar      12 UNK        -0.0762 
     14 C14        29.4792   24.9529    4.9939 C.ar      12 UNK        -0.0782 
     15 C15        28.7418   26.3925    6.9758 C.3       12 UNK         0.0230 
     16 S16        27.2559   26.9795    6.0895 S.3       12 UNK        -0.2608 
     17 C17        27.9448   28.2161    4.9350 C.3       12 UNK        -0.0989 
     18 CA         27.8014   27.7750    3.4535 C.3       5 UNK         0.0716 
     19 N          26.4120   27.4925    3.0683 N.am      5 UNK        -0.4135 
     20 C          25.3958   28.3608    2.9729 C.2       4 UNK         0.5031 
     21 O          25.5096   29.5741    3.1561 O.2       4 UNK        -0.5229 
     22 CA         24.0239   27.7612    2.5873 C.3       4 UNK         0.0329 
     23 CB         22.9042   28.8188    2.5537 C.3       4 UNK        -0.2001 
     24 N          24.0541   27.0633    1.2958 N.am      4 UNK        -0.4303 
     25 C          24.6316   25.8766    1.0703 C.2       3 UNK         0.5044 
     26 O          25.1849   25.2135    1.9551 O.2       3 UNK        -0.5152 
     27 CA         24.6449   25.3687   -0.3795 C.3       3 UNK         0.0319 
     28 CB         25.3929   26.3618   -1.2955 C.3       3 UNK        -0.2001 
     29 N          25.3216   24.0757   -0.3604 N.am      3 UNK        -0.4354 
     30 C          25.5659   23.2499   -1.3804 C.2       2 UNK         0.4964 
     31 O          25.1521   23.4081   -2.5301 O.2       2 UNK        -0.5047 
     32 CA         26.4427   22.0347   -1.0443 C.3       2 UNK         0.0288 
     33 CB         25.6113   20.7420   -1.0877 C.3       2 UNK        -0.2113 
     34 N          27.5712   21.9099   -1.9713 N.am      2 UNK        -0.4145 
     35 C          28.6806   22.6648   -2.0550 C.2       1 UNK         0.5006 
     36 O          29.5364   22.4251   -2.9096 O.2       1 UNK        -0.5103 
     37 C          28.5098   28.7273    2.4636 C.2       5 UNK         0.5055 
     38 O          29.3315   29.5527    2.8696 O.2       5 UNK        -0.5220 
     39 N          28.1881   28.5832    1.1690 N.am      6 UNK        -0.4450 
     40 CA         28.6878   29.4222    0.0752 C.3       6 UNK         0.0367 
     41 CB         27.8433   29.1717   -1.1839 C.3       6 UNK        -0.1929 
     42 C          30.1852   29.2448   -0.2348 C.2       6 UNK         0.5070 
     43 O          30.7450   30.0774   -0.9484 O.2       6 UNK        -0.5237 
     44 N          30.8139   28.1858    0.2954 N.am      7 UNK        -0.4739 
     45 CA         32.2565   27.9465    0.2435 C.3       7 UNK         0.0276 
     46 CB         32.5510   26.5245    0.7545 C.3       7 UNK        -0.1927 
     47 C          33.0165   29.0057    1.0607 C.2       7 UNK         0.5013 
     48 O          33.2228   28.8154    2.2586 O.2       7 UNK        -0.5193 
     49 N          33.3729   30.1181    0.4026 N.am      8 UNK        -0.4253 
     50 CA         34.1277   31.2639    0.9273 C.3       8 UNK         0.0242 
     51 CB         35.6106   30.8802    1.1179 C.3       8 UNK        -0.2000 
     52 C          33.5067   31.8981    2.1898 C.2       8 UNK         0.4948 
     53 O          34.2436   32.2852    3.0981 O.2       8 UNK        -0.5275 
     54 N          32.1656   31.9805    2.2199 N.am      9 UNK        -0.4246 
     55 CA         31.3309   32.5042    3.3110 C.3       9 UNK         0.0261 
     56 CB         31.4696   34.0387    3.4056 C.3       9 UNK        -0.1959 
     57 C          31.6188   31.7934    4.6481 C.2       9 UNK         0.5033 
     58 O          32.1204   32.4157    5.5871 O.2       9 UNK        -0.5390 
     59 N          31.3218   30.4876    4.6790 N.am      10 UNK        -0.4215 
     60 CA         31.6140   29.5378    5.7576 C.3       10 UNK         0.0240 
     61 CB         30.8062   29.8711    7.0319 C.3       10 UNK        -0.1982 
     62 C          33.1235   29.3712    6.0203 C.2       10 UNK         0.4970 
     63 O          33.5495   29.3527    7.1770 O.2       10 UNK        -0.4916 
     64 N          33.8917   29.2155    4.9354 N.am      11 UNK        -0.4279 
     65 CA         35.3305   28.9159    4.9191 C.3       11 UNK         0.1003 
     66 C          36.2178   30.0417    5.5266 C.2       11 UNK         0.5709 
     67 N          35.9079   31.3086    5.2810 N.am      11 UNK        -0.7358 
     68 O          37.2038   29.7771    6.2119 O.2       11 UNK        -0.4999 
     69 C69        35.6582   27.4947    5.4635 C.3       12 UNK        -0.0954 
     70 S70        34.6759   26.1861    4.6446 S.3       12 UNK        -0.2268 
     71 C71        33.6342   25.5725    6.0114 C.3       12 UNK         0.0203 
     72 H72        30.6962   26.4915   -4.1597 H         1 UNK         0.0888 
     73 H73        31.4749   26.5189   -2.5767 H         1 UNK         0.0888 
     74 H74        30.2097   27.6883   -2.9570 H         1 UNK         0.0888 
     75 H75        30.7672   24.8206   -1.3051 H         1 UNK         0.3017 
     76 H76        27.9969   24.3109   -0.8162 H         1 UNK         0.0873 
     77 H77        30.5399   22.8776    0.1136 H         1 UNK         0.0745 
     78 H78        28.9474   22.4409    0.6698 H         1 UNK         0.0745 
     79 H79        29.2777   22.8664    3.2582 H         1 UNK         0.0705 
     80 H80        30.9376   22.8938    2.7100 H         1 UNK         0.0705 
     81 H81        32.5960   24.1612    3.9029 H         1 UNK         0.1334 
     82 H82        31.4290   26.5638    7.2542 H         1 UNK         0.1417 
     83 H83        28.4406   24.7676    4.7560 H         1 UNK         0.1562 
     84 H84        29.1563   27.2328    7.5345 H         1 UNK         0.0748 
     85 H85        28.4327   25.6547    7.7172 H         1 UNK         0.0748 
     86 H86        28.9926   28.3766    5.1816 H         1 UNK         0.0940 
     87 H87        27.4451   29.1714    5.1043 H         1 UNK         0.0940 
     88 H88        28.3300   26.8289    3.3425 H         1 UNK         0.0703 
     89 H89        26.1934   26.5186    2.8713 H         1 UNK         0.3081 
     90 H90        23.7670   27.0369    3.3635 H         1 UNK         0.0719 
     91 H91        23.0879   29.5786    1.7930 H         1 UNK         0.0809 
     92 H92        21.9346   28.3647    2.3485 H         1 UNK         0.0809 
     93 H93        22.8216   29.3313    3.5133 H         1 UNK         0.0809 
     94 H94        23.6407   27.5541    0.5157 H         1 UNK         0.2990 
     95 H95        23.6166   25.2339   -0.7193 H         1 UNK         0.0690 
     96 H96        26.4313   26.4763   -0.9859 H         1 UNK         0.0788 
     97 H97        24.9331   27.3503   -1.2866 H         1 UNK         0.0788 
     98 H98        25.3966   26.0323   -2.3343 H         1 UNK         0.0788 
     99 H99        25.6497   23.8418    0.5714 H         1 UNK         0.2993 
    100 H100       26.8283   22.1391   -0.0296 H         1 UNK         0.0949 
    101 H101       24.7714   20.7944   -0.3934 H         1 UNK         0.0767 
    102 H102       25.2007   20.5574   -2.0816 H         1 UNK         0.0767 
    103 H103       26.2094   19.8751   -0.8054 H         1 UNK         0.0767 
    104 H104       27.4591   21.1921   -2.6716 H         1 UNK         0.3013 
    105 H105       27.5141   27.8738    0.9245 H         1 UNK         0.3121 
    106 H106       28.5487   30.4639    0.3723 H         1 UNK         0.0774 
    107 H107       26.7832   29.3420   -0.9957 H         1 UNK         0.0815 
    108 H108       28.1380   29.8449   -1.9902 H         1 UNK         0.0815 
    109 H109       27.9643   28.1549   -1.5555 H         1 UNK         0.0815 
    110 H110       30.2784   27.5634    0.8825 H         1 UNK         0.2987 
    111 H111       32.5870   28.0091   -0.7954 H         1 UNK         0.0949 
    112 H112       33.6238   26.3271    0.7607 H         1 UNK         0.0806 
    113 H113       32.1911   26.3762    1.7742 H         1 UNK         0.0806 
    114 H114       32.0878   25.7684    0.1229 H         1 UNK         0.0806 
    115 H115       33.0470   30.2111   -0.5518 H         1 UNK         0.3010 
    116 H116       34.0860   32.0362    0.1578 H         1 UNK         0.0829 
    117 H117       36.0418   30.4943    0.1942 H         1 UNK         0.0813 
    118 H118       36.2072   31.7437    1.4148 H         1 UNK         0.0813 
    119 H119       35.7340   30.1190    1.8871 H         1 UNK         0.0813 
    120 H120       31.6628   31.6012    1.4294 H         1 UNK         0.3038 
    121 H121       30.2945   32.2813    3.0513 H         1 UNK         0.0769 
    122 H122       32.4862   34.3399    3.6612 H         1 UNK         0.0811 
    123 H123       30.8090   34.4419    4.1740 H         1 UNK         0.0811 
    124 H124       31.2046   34.5197    2.4643 H         1 UNK         0.0811 
    125 H125       30.8478   30.0942    3.8673 H         1 UNK         0.3204 
    126 H126       31.2758   28.5689    5.3917 H         1 UNK         0.0748 
    127 H127       30.9147   29.0846    7.7792 H         1 UNK         0.0771 
    128 H128       31.1428   30.8005    7.4922 H         1 UNK         0.0771 
    129 H129       29.7426   29.9724    6.8186 H         1 UNK         0.0771 
    130 H130       33.4586   29.2102    4.0137 H         1 UNK         0.2980 
    131 H131       35.6010   28.9019    3.8641 H         1 UNK         0.0545 
    132 H132       35.1428   31.5516    4.6573 H         1 UNK         0.3459 
    133 H133       36.4805   32.0383    5.6725 H         1 UNK         0.3459 
    134 H134       36.7100   27.2632    5.2879 H         1 UNK         0.0616 
    135 H135       35.5245   27.4579    6.5451 H         1 UNK         0.0616 
    136 H136       34.0320   24.6151    6.3497 H         1 UNK         0.0634 
    137 H137       33.7022   26.2478    6.8648 H         1 UNK         0.0634 
@<TRIPOS>BOND
     1    1    2 1    
     2    1   72 1    
     3    1   73 1    
     4    1   74 1    
     5    2    3 2    
     6    2    4 am   BACKBONE|DICT|INTERRES
     7    4    5 1    
     8    4   75 1    
     9    5    6 1    
    10    5   35 1    
    11    5   76 1    
    12    6    7 1    
    13    6   77 1    
    14    6   78 1    
    15    7    8 1    
    16    8    9 1    
    17    8   79 1    
    18    8   80 1    
    19    9   10 ar   
    20    9   14 ar   
    21   10   11 ar   
    22   10   81 1    
    23   11   12 ar   
    24   11   71 1    
    25   12   13 ar   
    26   12   82 1    
    27   13   14 ar   
    28   13   15 1    
    29   14   83 1    
    30   15   16 1    
    31   15   84 1    
    32   15   85 1    
    33   16   17 1    
    34   17   18 1    
    35   17   86 1    
    36   17   87 1    
    37   18   19 1    
    38   18   37 1    
    39   18   88 1    
    40   19   20 am   BACKBONE|DICT|INTERRES
    41   19   89 1    
    42   20   21 2    
    43   20   22 1    
    44   22   23 1    
    45   22   24 1    
    46   22   90 1    
    47   23   91 1    
    48   23   92 1    
    49   23   93 1    
    50   24   25 am   BACKBONE|DICT|INTERRES
    51   24   94 1    
    52   25   26 2    
    53   25   27 1    
    54   27   28 1    
    55   27   29 1    
    56   27   95 1    
    57   28   96 1    
    58   28   97 1    
    59   28   98 1    
    60   29   30 am   BACKBONE|DICT|INTERRES
    61   29   99 1    
    62   30   31 2    
    63   30   32 1    
    64   32   33 1    
    65   32   34 1    
    66   32  100 1    
    67   33  101 1    
    68   33  102 1    
    69   33  103 1    
    70   34   35 am   BACKBONE|DICT|INTERRES
    71   34  104 1    
    72   35   36 2    
    73   37   38 2    
    74   37   39 am   BACKBONE|DICT|INTERRES
    75   39   40 1    
    76   39  105 1    
    77   40   41 1    
    78   40   42 1    
    79   40  106 1    
    80   41  107 1    
    81   41  108 1    
    82   41  109 1    
    83   42   43 2    
    84   42   44 am   BACKBONE|DICT|INTERRES
    85   44   45 1    
    86   44  110 1    
    87   45   46 1    
    88   45   47 1    
    89   45  111 1    
    90   46  112 1    
    91   46  113 1    
    92   46  114 1    
    93   47   48 2    
    94   47   49 am   BACKBONE|DICT|INTERRES
    95   49   50 1    
    96   49  115 1    
    97   50   51 1    
    98   50   52 1    
    99   50  116 1    
   100   51  117 1    
   101   51  118 1    
   102   51  119 1    
   103   52   53 2    
   104   52   54 am   BACKBONE|DICT|INTERRES
   105   54   55 1    
   106   54  120 1    
   107   55   56 1    
   108   55   57 1    
   109   55  121 1    
   110   56  122 1    
   111   56  123 1    
   112   56  124 1    
   113   57   58 2    
   114   57   59 am   BACKBONE|DICT|INTERRES
   115   59   60 1    
   116   59  125 1    
   117   60   61 1    
   118   60   62 1    
   119   60  126 1    
   120   61  127 1    
   121   61  128 1    
   122   61  129 1    
   123   62   63 2    
   124   62   64 am   BACKBONE|DICT|INTERRES
   125   64   65 1    
   126   64  130 1    
   127   65   66 1    
   128   65   69 1    
   129   65  131 1    
   130   66   67 am   BACKBONE|DICT|INTERRES
   131   66   68 2    
   132   67  132 1    
   133   67  133 1    
   134   69   70 1    
   135   69  134 1    
   136   69  135 1    
   137   70   71 1    
   138   71  136 1    
   139   71  137 1    
@<TRIPOS>SUBSTRUCTURE
     1 UNK         1 GROUP             0       ****    0 ROOT    
