@<TRIPOS>MOLECULE
3R136
137   139    1
SMALL
USER_CHARGES


@<TRIPOS>ATOM
      1 CA         26.5041   22.1737    3.0883 C.3       0 UNK        -0.1979 
      2 C          27.5202   21.6198    2.1012 C.2       0 UNK         0.4864 
      3 O          28.4127   20.8666    2.4927 O.2       0 UNK        -0.5359 
      4 N          27.3871   21.9966    0.8282 N.am      1 UNK        -0.4318 
      5 CA         28.2325   21.5680   -0.2862 C.3       1 UNK         0.0824 
      6 C6         29.3950   22.5681   -0.5600 C.3       12 UNK        -0.0944 
      7 S7         28.8376   24.2940   -0.8166 S.3       12 UNK        -0.2672 
      8 C8         30.3603   25.2444   -0.4917 C.3       12 UNK         0.0333 
      9 C9         30.8458   25.2981    0.9600 C.ar      12 UNK        -0.0807 
     10 C10        32.0575   25.9491    1.2103 C.ar      12 UNK        -0.0894 
     11 C11        32.5794   26.0275    2.5030 C.ar      12 UNK        -0.0804 
     12 C12        31.8845   25.4360    3.5599 C.ar      12 UNK        -0.0824 
     13 C13        30.6656   24.7905    3.3356 C.ar      12 UNK        -0.0762 
     14 C14        30.1470   24.7309    2.0369 C.ar      12 UNK        -0.0782 
     15 C15        29.9387   24.1318    4.5005 C.3       12 UNK         0.0230 
     16 S16        29.2837   25.3623    5.6746 S.3       12 UNK        -0.2608 
     17 C17        27.5620   25.5791    5.1084 C.3       12 UNK        -0.0989 
     18 CA         27.4161   26.5011    3.8713 C.3       5 UNK         0.0716 
     19 N          26.1705   26.2127    3.1559 N.am      5 UNK        -0.4135 
     20 C          25.9304   26.5278    1.8777 C.2       4 UNK         0.5031 
     21 O          26.7568   27.0497    1.1248 O.2       4 UNK        -0.5229 
     22 CA         24.5030   26.2395    1.3762 C.3       4 UNK         0.0329 
     23 CB         23.5698   27.4152    1.7108 C.3       4 UNK        -0.2001 
     24 N          24.4667   26.0014   -0.0674 N.am      4 UNK        -0.4303 
     25 C          24.9870   24.9265   -0.6712 C.2       3 UNK         0.5044 
     26 O          25.4512   23.9593   -0.0574 O.2       3 UNK        -0.5152 
     27 CA         24.9773   24.9338   -2.2116 C.3       3 UNK         0.0319 
     28 CB         25.4104   26.2906   -2.8020 C.3       3 UNK        -0.2001 
     29 N          25.8951   23.9050   -2.6848 N.am      3 UNK        -0.4354 
     30 C          25.6548   22.9780   -3.6198 C.2       2 UNK         0.4964 
     31 O          24.6311   22.9383   -4.3033 O.2       2 UNK        -0.5047 
     32 CA         26.7445   21.9034   -3.8234 C.3       2 UNK         0.0288 
     33 CB         27.5695   22.2034   -5.0858 C.3       2 UNK        -0.2113 
     34 N          27.6496   21.8010   -2.6730 N.am      2 UNK        -0.4145 
     35 C          27.3031   21.2862   -1.4843 C.2       1 UNK         0.5006 
     36 O          26.2662   20.6412   -1.3069 O.2       1 UNK        -0.5103 
     37 C          27.5382   28.0039    4.2145 C.2       5 UNK         0.5055 
     38 O          26.5695   28.7548    4.0700 O.2       5 UNK        -0.5220 
     39 N          28.7393   28.4051    4.6571 N.am      6 UNK        -0.4450 
     40 CA         29.1909   29.7872    4.8723 C.3       6 UNK         0.0367 
     41 CB         28.3704   30.4951    5.9718 C.3       6 UNK        -0.1929 
     42 C          29.2473   30.5726    3.5458 C.2       6 UNK         0.5070 
     43 O          28.8196   31.7258    3.4817 O.2       6 UNK        -0.5237 
     44 N          29.7621   29.9096    2.4994 N.am      7 UNK        -0.4739 
     45 CA         29.8357   30.4104    1.1228 C.3       7 UNK         0.0276 
     46 CB         30.1675   29.2310    0.1935 C.3       7 UNK        -0.1927 
     47 C          30.8388   31.5612    0.9146 C.2       7 UNK         0.5013 
     48 O          30.7297   32.2823   -0.0781 O.2       7 UNK        -0.5193 
     49 N          31.7889   31.7136    1.8406 N.am      8 UNK        -0.4253 
     50 CA         32.7926   32.7697    1.8913 C.3       8 UNK         0.0242 
     51 CB         34.0311   32.3411    1.0827 C.3       8 UNK        -0.2000 
     52 C          33.1486   33.0059    3.3626 C.2       8 UNK         0.4948 
     53 O          32.8253   32.1671    4.2072 O.2       8 UNK        -0.5275 
     54 N          33.8510   34.1107    3.6491 N.am      9 UNK        -0.4246 
     55 CA         34.3156   34.4740    4.9964 C.3       9 UNK         0.0261 
     56 CB         35.0062   35.8466    4.9500 C.3       9 UNK        -0.1959 
     57 C          35.2422   33.4241    5.6405 C.2       9 UNK         0.5033 
     58 O          35.1926   33.2337    6.8563 O.2       9 UNK        -0.5390 
     59 N          36.0315   32.7300    4.8086 N.am      10 UNK        -0.4215 
     60 CA         36.8833   31.6033    5.1979 C.3       10 UNK         0.0240 
     61 CB         37.8452   31.2832    4.0416 C.3       10 UNK        -0.1982 
     62 C          36.0998   30.3397    5.6058 C.2       10 UNK         0.4970 
     63 O          36.6642   29.4916    6.2980 O.2       10 UNK        -0.4916 
     64 N          34.8358   30.2269    5.1764 N.am      11 UNK        -0.4279 
     65 CA         33.9336   29.1128    5.5024 C.3       11 UNK         0.1003 
     66 C          33.2012   29.2824    6.8655 C.2       11 UNK         0.5709 
     67 N          33.3470   30.3972    7.5735 N.am      11 UNK        -0.7358 
     68 O          32.4921   28.3763    7.2954 O.2       11 UNK        -0.4999 
     69 C69        32.9247   28.8333    4.3561 C.3       12 UNK        -0.0954 
     70 S70        33.7222   28.5432    2.7424 S.3       12 UNK        -0.2268 
     71 C71        33.9050   26.7332    2.7467 C.3       12 UNK         0.0203 
     72 H72        26.1232   23.1422    2.7637 H         1 UNK         0.0888 
     73 H73        25.6630   21.4877    3.1829 H         1 UNK         0.0888 
     74 H74        26.9537   22.2957    4.0728 H         1 UNK         0.0888 
     75 H75        26.6215   22.6140    0.5595 H         1 UNK         0.3017 
     76 H76        28.6782   20.6009   -0.0438 H         1 UNK         0.0873 
     77 H77        29.9992   22.2519   -1.4119 H         1 UNK         0.0745 
     78 H78        30.0781   22.5453    0.2896 H         1 UNK         0.0745 
     79 H79        31.1557   24.8407   -1.1200 H         1 UNK         0.0705 
     80 H80        30.1895   26.2663   -0.8322 H         1 UNK         0.0705 
     81 H81        32.6032   26.3993    0.3918 H         1 UNK         0.1334 
     82 H82        32.2890   25.4793    4.5622 H         1 UNK         0.1417 
     83 H83        29.2033   24.2314    1.8730 H         1 UNK         0.1562 
     84 H84        30.6407   23.4869    5.0310 H         1 UNK         0.0748 
     85 H85        29.1405   23.4781    4.1483 H         1 UNK         0.0748 
     86 H86        26.9644   25.9528    5.9426 H         1 UNK         0.0940 
     87 H87        27.1637   24.5871    4.8933 H         1 UNK         0.0940 
     88 H88        28.2272   26.2785    3.1781 H         1 UNK         0.0703 
     89 H89        25.4110   25.8534    3.7148 H         1 UNK         0.3081 
     90 H90        24.1309   25.3428    1.8769 H         1 UNK         0.0719 
     91 H91        23.8945   28.3371    1.2263 H         1 UNK         0.0809 
     92 H92        22.5454   27.2124    1.3976 H         1 UNK         0.0809 
     93 H93        23.5471   27.6057    2.7847 H         1 UNK         0.0809 
     94 H94        24.1353   26.7627   -0.6407 H         1 UNK         0.2990 
     95 H95        23.9590   24.7064   -2.5333 H         1 UNK         0.0690 
     96 H96        25.4997   26.2372   -3.8872 H         1 UNK         0.0788 
     97 H97        26.3752   26.6109   -2.4049 H         1 UNK         0.0788 
     98 H98        24.6852   27.0749   -2.5838 H         1 UNK         0.0788 
     99 H99        26.7404   23.8211   -2.1352 H         1 UNK         0.2993 
    100 H100       26.2400   20.9440   -3.9583 H         1 UNK         0.0949 
    101 H101       26.9281   22.2577   -5.9667 H         1 UNK         0.0767 
    102 H102       28.0971   23.1550   -5.0074 H         1 UNK         0.0767 
    103 H103       28.3077   21.4230   -5.2721 H         1 UNK         0.0767 
    104 H104       28.5183   22.3133   -2.7360 H         1 UNK         0.3013 
    105 H105       29.4372   27.6866    4.8051 H         1 UNK         0.3121 
    106 H106       30.2142   29.7214    5.2407 H         1 UNK         0.0774 
    107 H107       28.8127   31.4602    6.2219 H         1 UNK         0.0815 
    108 H108       27.3430   30.6842    5.6602 H         1 UNK         0.0815 
    109 H109       28.3418   29.9050    6.8876 H         1 UNK         0.0815 
    110 H110       30.0815   28.9627    2.6434 H         1 UNK         0.2987 
    111 H111       28.8485   30.7925    0.8536 H         1 UNK         0.0949 
    112 H112       31.1390   28.7941    0.4288 H         1 UNK         0.0806 
    113 H113       29.4163   28.4438    0.2694 H         1 UNK         0.0806 
    114 H114       30.1966   29.5497   -0.8493 H         1 UNK         0.0806 
    115 H115       31.7740   31.1209    2.6608 H         1 UNK         0.3010 
    116 H116       32.3763   33.6929    1.4824 H         1 UNK         0.0829 
    117 H117       33.7748   32.1476    0.0409 H         1 UNK         0.0813 
    118 H118       34.7964   33.1178    1.0854 H         1 UNK         0.0813 
    119 H119       34.4813   31.4335    1.4875 H         1 UNK         0.0813 
    120 H120       34.0800   34.7515    2.9020 H         1 UNK         0.3038 
    121 H121       33.4326   34.5579    5.6337 H         1 UNK         0.0769 
    122 H122       35.8819   35.8383    4.2998 H         1 UNK         0.0811 
    123 H123       35.3413   36.1480    5.9436 H         1 UNK         0.0811 
    124 H124       34.3278   36.6211    4.5916 H         1 UNK         0.0811 
    125 H125       36.0072   32.9635    3.8269 H         1 UNK         0.3204 
    126 H126       37.4755   31.9116    6.0622 H         1 UNK         0.0748 
    127 H127       38.4638   32.1445    3.7883 H         1 UNK         0.0771 
    128 H128       38.5212   30.4698    4.3095 H         1 UNK         0.0771 
    129 H129       37.3082   30.9770    3.1426 H         1 UNK         0.0771 
    130 H130       34.4061   30.9885    4.6648 H         1 UNK         0.2980 
    131 H131       34.5398   28.2118    5.6119 H         1 UNK         0.0545 
    132 H132       32.8687   30.4855    8.4557 H         1 UNK         0.3459 
    133 H133       33.9238   31.1529    7.2339 H         1 UNK         0.3459 
    134 H134       32.2547   29.6814    4.2335 H         1 UNK         0.0616 
    135 H135       32.2867   27.9839    4.5999 H         1 UNK         0.0616 
    136 H136       34.6125   26.4520    1.9654 H         1 UNK         0.0634 
    137 H137       34.3506   26.4141    3.6902 H         1 UNK         0.0634 
@<TRIPOS>BOND
     1    1    2 1    
     2    1   72 1    
     3    1   73 1    
     4    1   74 1    
     5    2    3 2    
     6    2    4 am   BACKBONE|DICT|INTERRES
     7    4    5 1    
     8    4   75 1    
     9    5    6 1    
    10    5   35 1    
    11    5   76 1    
    12    6    7 1    
    13    6   77 1    
    14    6   78 1    
    15    7    8 1    
    16    8    9 1    
    17    8   79 1    
    18    8   80 1    
    19    9   10 ar   
    20    9   14 ar   
    21   10   11 ar   
    22   10   81 1    
    23   11   12 ar   
    24   11   71 1    
    25   12   13 ar   
    26   12   82 1    
    27   13   14 ar   
    28   13   15 1    
    29   14   83 1    
    30   15   16 1    
    31   15   84 1    
    32   15   85 1    
    33   16   17 1    
    34   17   18 1    
    35   17   86 1    
    36   17   87 1    
    37   18   19 1    
    38   18   37 1    
    39   18   88 1    
    40   19   20 am   BACKBONE|DICT|INTERRES
    41   19   89 1    
    42   20   21 2    
    43   20   22 1    
    44   22   23 1    
    45   22   24 1    
    46   22   90 1    
    47   23   91 1    
    48   23   92 1    
    49   23   93 1    
    50   24   25 am   BACKBONE|DICT|INTERRES
    51   24   94 1    
    52   25   26 2    
    53   25   27 1    
    54   27   28 1    
    55   27   29 1    
    56   27   95 1    
    57   28   96 1    
    58   28   97 1    
    59   28   98 1    
    60   29   30 am   BACKBONE|DICT|INTERRES
    61   29   99 1    
    62   30   31 2    
    63   30   32 1    
    64   32   33 1    
    65   32   34 1    
    66   32  100 1    
    67   33  101 1    
    68   33  102 1    
    69   33  103 1    
    70   34   35 am   BACKBONE|DICT|INTERRES
    71   34  104 1    
    72   35   36 2    
    73   37   38 2    
    74   37   39 am   BACKBONE|DICT|INTERRES
    75   39   40 1    
    76   39  105 1    
    77   40   41 1    
    78   40   42 1    
    79   40  106 1    
    80   41  107 1    
    81   41  108 1    
    82   41  109 1    
    83   42   43 2    
    84   42   44 am   BACKBONE|DICT|INTERRES
    85   44   45 1    
    86   44  110 1    
    87   45   46 1    
    88   45   47 1    
    89   45  111 1    
    90   46  112 1    
    91   46  113 1    
    92   46  114 1    
    93   47   48 2    
    94   47   49 am   BACKBONE|DICT|INTERRES
    95   49   50 1    
    96   49  115 1    
    97   50   51 1    
    98   50   52 1    
    99   50  116 1    
   100   51  117 1    
   101   51  118 1    
   102   51  119 1    
   103   52   53 2    
   104   52   54 am   BACKBONE|DICT|INTERRES
   105   54   55 1    
   106   54  120 1    
   107   55   56 1    
   108   55   57 1    
   109   55  121 1    
   110   56  122 1    
   111   56  123 1    
   112   56  124 1    
   113   57   58 2    
   114   57   59 am   BACKBONE|DICT|INTERRES
   115   59   60 1    
   116   59  125 1    
   117   60   61 1    
   118   60   62 1    
   119   60  126 1    
   120   61  127 1    
   121   61  128 1    
   122   61  129 1    
   123   62   63 2    
   124   62   64 am   BACKBONE|DICT|INTERRES
   125   64   65 1    
   126   64  130 1    
   127   65   66 1    
   128   65   69 1    
   129   65  131 1    
   130   66   67 am   BACKBONE|DICT|INTERRES
   131   66   68 2    
   132   67  132 1    
   133   67  133 1    
   134   69   70 1    
   135   69  134 1    
   136   69  135 1    
   137   70   71 1    
   138   71  136 1    
   139   71  137 1    
@<TRIPOS>SUBSTRUCTURE
     1 UNK         1 GROUP             0       ****    0 ROOT    
