@<TRIPOS>MOLECULE
3R136
137   139    1
SMALL
USER_CHARGES


@<TRIPOS>ATOM
      1 CA         30.6163   23.1836   -2.7617 C.3       0 UNK        -0.1979 
      2 C          30.1442   22.6568   -1.4140 C.2       0 UNK         0.4864 
      3 O          29.8016   21.4783   -1.3098 O.2       0 UNK        -0.5359 
      4 N          30.1368   23.5289   -0.3962 N.am      1 UNK        -0.4318 
      5 CA         29.6677   23.3054    0.9766 C.3       1 UNK         0.0824 
      6 C6         30.3001   22.0557    1.6534 C.3       12 UNK        -0.0944 
      7 S7         30.4069   22.1623    3.4740 S.3       12 UNK        -0.2672 
      8 C8         32.0466   22.9185    3.7301 C.3       12 UNK         0.0333 
      9 C9         31.9806   24.4272    3.5549 C.ar      12 UNK        -0.0807 
     10 C10        31.5563   25.2346    4.6135 C.ar      12 UNK        -0.0894 
     11 C11        31.4352   26.6173    4.4472 C.ar      12 UNK        -0.0804 
     12 C12        31.7152   27.1891    3.2024 C.ar      12 UNK        -0.0824 
     13 C13        32.1427   26.3889    2.1381 C.ar      12 UNK        -0.0762 
     14 C14        32.3070   25.0144    2.3298 C.ar      12 UNK        -0.0782 
     15 C15        32.3963   26.9968    0.7687 C.3       12 UNK         0.0230 
     16 S16        30.9743   26.7334   -0.3405 S.3       12 UNK        -0.2608 
     17 C17        29.6878   27.7565    0.4519 C.3       12 UNK        -0.0989 
     18 CA         28.6059   28.1914   -0.5659 C.3       5 UNK         0.0716 
     19 N          27.7886   27.0715   -1.0412 N.am      5 UNK        -0.4135 
     20 C          27.3455   26.9404   -2.2997 C.2       4 UNK         0.5031 
     21 O          27.6801   27.6765   -3.2289 O.2       4 UNK        -0.5229 
     22 CA         26.3384   25.8084   -2.5758 C.3       4 UNK         0.0329 
     23 CB         27.0632   24.5354   -3.0366 C.3       4 UNK        -0.2001 
     24 N          25.4901   25.5104   -1.4175 N.am      4 UNK        -0.4303 
     25 C          24.5273   26.3329   -0.9712 C.2       3 UNK         0.5044 
     26 O          24.1995   27.3676   -1.5521 O.2       3 UNK        -0.5152 
     27 CA         23.8092   25.9689    0.3435 C.3       3 UNK         0.0319 
     28 CB         22.3961   25.4380    0.0523 C.3       3 UNK        -0.2001 
     29 N          24.5119   25.0052    1.1969 N.am      3 UNK        -0.4354 
     30 C          25.7217   25.1761    1.7461 C.2       2 UNK         0.4964 
     31 O          26.4226   26.1737    1.5537 O.2       2 UNK        -0.5047 
     32 CA         26.2661   24.0354    2.6307 C.3       2 UNK         0.0288 
     33 CB         25.4060   22.7500    2.6230 C.3       2 UNK        -0.2113 
     34 N          27.6584   23.7250    2.2920 N.am      2 UNK        -0.4145 
     35 C          28.1316   23.3726    1.0873 C.2       1 UNK         0.5006 
     36 O          27.4138   23.1689    0.1042 O.2       1 UNK        -0.5103 
     37 C          27.6903   29.2793    0.0223 C.2       5 UNK         0.5055 
     38 O          27.8556   30.4508   -0.3224 O.2       5 UNK        -0.5220 
     39 N          26.7387   28.8733    0.8799 N.am      6 UNK        -0.4450 
     40 CA         25.7290   29.6670    1.5959 C.3       6 UNK         0.0367 
     41 CB         24.7677   30.3773    0.6231 C.3       6 UNK        -0.1929 
     42 C          26.3105   30.6492    2.6290 C.2       6 UNK         0.5070 
     43 O          25.9105   30.6120    3.7931 O.2       6 UNK        -0.5237 
     44 N          27.2387   31.5043    2.1914 N.am      7 UNK        -0.4739 
     45 CA         28.0116   32.4209    3.0253 C.3       7 UNK         0.0276 
     46 CB         28.5756   33.5359    2.1285 C.3       7 UNK        -0.1927 
     47 C          29.1545   31.6860    3.7431 C.2       7 UNK         0.5013 
     48 O          29.5781   30.6115    3.3042 O.2       7 UNK        -0.5193 
     49 N          29.6840   32.3134    4.8016 N.am      8 UNK        -0.4253 
     50 CA         30.8317   31.8408    5.5833 C.3       8 UNK         0.0242 
     51 CB         30.8111   32.5166    6.9669 C.3       8 UNK        -0.2000 
     52 C          32.1714   32.0456    4.8430 C.2       8 UNK         0.4948 
     53 O          33.0778   32.7052    5.3577 O.2       8 UNK        -0.5275 
     54 N          32.2658   31.4957    3.6278 N.am      9 UNK        -0.4246 
     55 CA         33.4156   31.5724    2.7297 C.3       9 UNK         0.0261 
     56 CB         32.9411   31.2668    1.2976 C.3       9 UNK        -0.1959 
     57 C          34.5501   30.6426    3.1946 C.2       9 UNK         0.5033 
     58 O          34.7516   29.5747    2.6119 O.2       9 UNK        -0.5390 
     59 N          35.2427   31.0590    4.2640 N.am      10 UNK        -0.4215 
     60 CA         36.3744   30.4196    4.9548 C.3       10 UNK         0.0240 
     61 CB         37.5746   30.2063    4.0111 C.3       10 UNK        -0.1982 
     62 C          36.0129   29.1231    5.7015 C.2       10 UNK         0.4970 
     63 O          36.4016   28.9737    6.8603 O.2       10 UNK        -0.4916 
     64 N          35.2694   28.2319    5.0382 N.am      11 UNK        -0.4279 
     65 CA         34.6924   26.9869    5.5723 C.3       11 UNK         0.1003 
     66 C          35.7278   25.8843    5.9468 C.2       11 UNK         0.5709 
     67 N          36.9687   25.9594    5.4796 N.am      11 UNK        -0.7358 
     68 O          35.3999   24.9271    6.6444 O.2       11 UNK        -0.4999 
     69 C69        33.6382   27.2343    6.6953 C.3       12 UNK        -0.0954 
     70 S70        32.3906   28.4945    6.2520 S.3       12 UNK        -0.2268 
     71 C71        31.0102   27.4916    5.6167 C.3       12 UNK         0.0203 
     72 H72        29.8634   22.9894   -3.5252 H         1 UNK         0.0888 
     73 H73        30.8031   24.2574   -2.7378 H         1 UNK         0.0888 
     74 H74        31.5384   22.6842   -3.0575 H         1 UNK         0.0888 
     75 H75        30.4214   24.4832   -0.5812 H         1 UNK         0.3017 
     76 H76        30.0114   24.1902    1.5066 H         1 UNK         0.0873 
     77 H77        31.3088   21.8927    1.2711 H         1 UNK         0.0745 
     78 H78        29.7427   21.1543    1.3923 H         1 UNK         0.0745 
     79 H79        32.7789   22.4763    3.0530 H         1 UNK         0.0705 
     80 H80        32.3877   22.6843    4.7397 H         1 UNK         0.0705 
     81 H81        31.3169   24.7832    5.5667 H         1 UNK         0.1334 
     82 H82        31.6022   28.2564    3.0672 H         1 UNK         0.1417 
     83 H83        32.6308   24.3937    1.5051 H         1 UNK         0.1562 
     84 H84        33.2817   26.5400    0.3241 H         1 UNK         0.0748 
     85 H85        32.6155   28.0610    0.8493 H         1 UNK         0.0748 
     86 H86        30.1690   28.6339    0.8901 H         1 UNK         0.0940 
     87 H87        29.2494   27.1998    1.2829 H         1 UNK         0.0940 
     88 H88        29.1249   28.6468   -1.4126 H         1 UNK         0.0703 
     89 H89        27.4295   26.4428   -0.3342 H         1 UNK         0.3081 
     90 H90        25.6912   26.1370   -3.3921 H         1 UNK         0.0719 
     91 H91        27.6493   24.7253   -3.9368 H         1 UNK         0.0809 
     92 H92        27.7486   24.1671   -2.2755 H         1 UNK         0.0809 
     93 H93        26.3589   23.7368   -3.2698 H         1 UNK         0.0809 
     94 H94        25.7069   24.6745   -0.8899 H         1 UNK         0.2990 
     95 H95        23.7130   26.8948    0.9145 H         1 UNK         0.0690 
     96 H96        21.8332   25.2787    0.9723 H         1 UNK         0.0788 
     97 H97        22.4247   24.4942   -0.4937 H         1 UNK         0.0788 
     98 H98        21.8280   26.1468   -0.5521 H         1 UNK         0.0788 
     99 H99        24.0266   24.1405    1.3893 H         1 UNK         0.2993 
    100 H100       26.2749   24.4251    3.6497 H         1 UNK         0.0949 
    101 H101       24.4029   22.9384    3.0077 H         1 UNK         0.0767 
    102 H102       25.3088   22.3239    1.6235 H         1 UNK         0.0767 
    103 H103       25.8477   21.9844    3.2613 H         1 UNK         0.0767 
    104 H104       28.3288   23.8747    3.0340 H         1 UNK         0.3013 
    105 H105       26.7158   27.8828    1.1199 H         1 UNK         0.3121 
    106 H106       25.1394   28.9402    2.1575 H         1 UNK         0.0774 
    107 H107       24.2872   29.6659   -0.0480 H         1 UNK         0.0815 
    108 H108       23.9764   30.8937    1.1679 H         1 UNK         0.0815 
    109 H109       25.2772   31.1219    0.0112 H         1 UNK         0.0815 
    110 H110       27.5447   31.3891    1.2276 H         1 UNK         0.2987 
    111 H111       27.3507   32.8620    3.7749 H         1 UNK         0.0949 
    112 H112       27.7775   34.0737    1.6163 H         1 UNK         0.0806 
    113 H113       29.1351   34.2690    2.7110 H         1 UNK         0.0806 
    114 H114       29.2512   33.1383    1.3694 H         1 UNK         0.0806 
    115 H115       29.3063   33.2116    5.0676 H         1 UNK         0.3010 
    116 H116       30.7106   30.7685    5.7408 H         1 UNK         0.0829 
    117 H117       31.6241   32.1459    7.5928 H         1 UNK         0.0813 
    118 H118       30.9247   33.5988    6.8907 H         1 UNK         0.0813 
    119 H119       29.8802   32.3115    7.4957 H         1 UNK         0.0813 
    120 H120       31.4557   30.9778    3.2974 H         1 UNK         0.3038 
    121 H121       33.8019   32.5940    2.7383 H         1 UNK         0.0769 
    122 H122       33.7792   31.2519    0.5997 H         1 UNK         0.0811 
    123 H123       32.2393   32.0231    0.9455 H         1 UNK         0.0811 
    124 H124       32.4429   30.3003    1.2354 H         1 UNK         0.0811 
    125 H125       34.8803   31.8917    4.7199 H         1 UNK         0.3204 
    126 H126       36.6868   31.1360    5.7164 H         1 UNK         0.0748 
    127 H127       38.4363   29.8234    4.5596 H         1 UNK         0.0771 
    128 H128       37.3528   29.4912    3.2184 H         1 UNK         0.0771 
    129 H129       37.8797   31.1416    3.5418 H         1 UNK         0.0771 
    130 H130       35.0143   28.4672    4.0818 H         1 UNK         0.2980 
    131 H131       34.1632   26.5554    4.7246 H         1 UNK         0.0545 
    132 H132       37.2479   26.7335    4.8991 H         1 UNK         0.3459 
    133 H133       37.6309   25.2379    5.7169 H         1 UNK         0.3459 
    134 H134       33.1223   26.3078    6.9519 H         1 UNK         0.0616 
    135 H135       34.1334   27.5645    7.6096 H         1 UNK         0.0616 
    136 H136       30.6045   26.8874    6.4295 H         1 UNK         0.0634 
    137 H137       30.2078   28.1580    5.2965 H         1 UNK         0.0634 
@<TRIPOS>BOND
     1    1    2 1    
     2    1   72 1    
     3    1   73 1    
     4    1   74 1    
     5    2    3 2    
     6    2    4 am   BACKBONE|DICT|INTERRES
     7    4    5 1    
     8    4   75 1    
     9    5    6 1    
    10    5   35 1    
    11    5   76 1    
    12    6    7 1    
    13    6   77 1    
    14    6   78 1    
    15    7    8 1    
    16    8    9 1    
    17    8   79 1    
    18    8   80 1    
    19    9   10 ar   
    20    9   14 ar   
    21   10   11 ar   
    22   10   81 1    
    23   11   12 ar   
    24   11   71 1    
    25   12   13 ar   
    26   12   82 1    
    27   13   14 ar   
    28   13   15 1    
    29   14   83 1    
    30   15   16 1    
    31   15   84 1    
    32   15   85 1    
    33   16   17 1    
    34   17   18 1    
    35   17   86 1    
    36   17   87 1    
    37   18   19 1    
    38   18   37 1    
    39   18   88 1    
    40   19   20 am   BACKBONE|DICT|INTERRES
    41   19   89 1    
    42   20   21 2    
    43   20   22 1    
    44   22   23 1    
    45   22   24 1    
    46   22   90 1    
    47   23   91 1    
    48   23   92 1    
    49   23   93 1    
    50   24   25 am   BACKBONE|DICT|INTERRES
    51   24   94 1    
    52   25   26 2    
    53   25   27 1    
    54   27   28 1    
    55   27   29 1    
    56   27   95 1    
    57   28   96 1    
    58   28   97 1    
    59   28   98 1    
    60   29   30 am   BACKBONE|DICT|INTERRES
    61   29   99 1    
    62   30   31 2    
    63   30   32 1    
    64   32   33 1    
    65   32   34 1    
    66   32  100 1    
    67   33  101 1    
    68   33  102 1    
    69   33  103 1    
    70   34   35 am   BACKBONE|DICT|INTERRES
    71   34  104 1    
    72   35   36 2    
    73   37   38 2    
    74   37   39 am   BACKBONE|DICT|INTERRES
    75   39   40 1    
    76   39  105 1    
    77   40   41 1    
    78   40   42 1    
    79   40  106 1    
    80   41  107 1    
    81   41  108 1    
    82   41  109 1    
    83   42   43 2    
    84   42   44 am   BACKBONE|DICT|INTERRES
    85   44   45 1    
    86   44  110 1    
    87   45   46 1    
    88   45   47 1    
    89   45  111 1    
    90   46  112 1    
    91   46  113 1    
    92   46  114 1    
    93   47   48 2    
    94   47   49 am   BACKBONE|DICT|INTERRES
    95   49   50 1    
    96   49  115 1    
    97   50   51 1    
    98   50   52 1    
    99   50  116 1    
   100   51  117 1    
   101   51  118 1    
   102   51  119 1    
   103   52   53 2    
   104   52   54 am   BACKBONE|DICT|INTERRES
   105   54   55 1    
   106   54  120 1    
   107   55   56 1    
   108   55   57 1    
   109   55  121 1    
   110   56  122 1    
   111   56  123 1    
   112   56  124 1    
   113   57   58 2    
   114   57   59 am   BACKBONE|DICT|INTERRES
   115   59   60 1    
   116   59  125 1    
   117   60   61 1    
   118   60   62 1    
   119   60  126 1    
   120   61  127 1    
   121   61  128 1    
   122   61  129 1    
   123   62   63 2    
   124   62   64 am   BACKBONE|DICT|INTERRES
   125   64   65 1    
   126   64  130 1    
   127   65   66 1    
   128   65   69 1    
   129   65  131 1    
   130   66   67 am   BACKBONE|DICT|INTERRES
   131   66   68 2    
   132   67  132 1    
   133   67  133 1    
   134   69   70 1    
   135   69  134 1    
   136   69  135 1    
   137   70   71 1    
   138   71  136 1    
   139   71  137 1    
@<TRIPOS>SUBSTRUCTURE
     1 UNK         1 GROUP             0       ****    0 ROOT    
