@<TRIPOS>MOLECULE
3R136
137   139    1
SMALL
USER_CHARGES


@<TRIPOS>ATOM
      1 CA         29.6898   22.8094   -4.4297 C.3       0 UNK        -0.1979 
      2 C          29.3229   23.7581   -3.2990 C.2       0 UNK         0.4864 
      3 O          28.1988   24.2599   -3.2638 O.2       0 UNK        -0.5359 
      4 N          30.2554   23.9937   -2.3641 N.am      1 UNK        -0.4318 
      5 CA         30.1073   24.8879   -1.2049 C.3       1 UNK         0.0824 
      6 C6         31.4223   24.9950   -0.3924 C.3       12 UNK        -0.0944 
      7 S7         31.9687   23.3950    0.3078 S.3       12 UNK        -0.2672 
      8 C8         32.7923   23.9013    1.8513 C.3       12 UNK         0.0333 
      9 C9         31.8955   24.6656    2.8218 C.ar      12 UNK        -0.0807 
     10 C10        32.3437   25.8773    3.3541 C.ar      12 UNK        -0.0894 
     11 C11        31.5856   26.5637    4.3057 C.ar      12 UNK        -0.0804 
     12 C12        30.3542   26.0420    4.7090 C.ar      12 UNK        -0.0824 
     13 C13        29.8830   24.8369    4.1774 C.ar      12 UNK        -0.0762 
     14 C14        30.6593   24.1521    3.2338 C.ar      12 UNK        -0.0782 
     15 C15        28.5683   24.2445    4.6709 C.3       12 UNK         0.0230 
     16 S16        27.1309   24.7910    3.6933 S.3       12 UNK        -0.2608 
     17 C17        26.9037   26.5130    4.2451 C.3       12 UNK        -0.0989 
     18 CA         27.2844   27.5294    3.1419 C.3       5 UNK         0.0716 
     19 N          26.4097   27.4125    1.9638 N.am      5 UNK        -0.4135 
     20 C          26.5424   28.1085    0.8265 C.2       4 UNK         0.5031 
     21 O          27.4075   28.9694    0.6545 O.2       4 UNK        -0.5229 
     22 CA         25.5199   27.8133   -0.2791 C.3       4 UNK         0.0329 
     23 CB         25.7202   28.6888   -1.5334 C.3       4 UNK        -0.2001 
     24 N          25.5568   26.3981   -0.6460 N.am      4 UNK        -0.4303 
     25 C          24.5199   25.7307   -1.1753 C.2       3 UNK         0.5044 
     26 O          23.4037   26.2294   -1.3295 O.2       3 UNK        -0.5152 
     27 CA         24.7400   24.2785   -1.6403 C.3       3 UNK         0.0319 
     28 CB         24.7687   24.2075   -3.1761 C.3       3 UNK        -0.2001 
     29 N          25.9652   23.6787   -1.1133 N.am      3 UNK        -0.4354 
     30 C          26.0856   23.1801    0.1261 C.2       2 UNK         0.4964 
     31 O          25.1509   23.1149    0.9249 O.2       2 UNK        -0.5047 
     32 CA         27.4738   22.6697    0.5584 C.3       2 UNK         0.0288 
     33 CB         27.5352   21.1365    0.4672 C.3       2 UNK        -0.2113 
     34 N          28.5952   23.2339   -0.1956 N.am      2 UNK        -0.4145 
     35 C          28.9074   24.5353   -0.2990 C.2       1 UNK         0.5006 
     36 O          28.2648   25.4392    0.2324 O.2       1 UNK        -0.5103 
     37 C          27.3481   28.9558    3.7345 C.2       5 UNK         0.5055 
     38 O          28.3540   29.3012    4.3528 O.2       5 UNK        -0.5220 
     39 N          26.2890   29.7549    3.5357 N.am      6 UNK        -0.4450 
     40 CA         26.2243   31.1647    3.9268 C.3       6 UNK         0.0367 
     41 CB         24.7511   31.5991    3.9969 C.3       6 UNK        -0.1929 
     42 C          27.0125   32.0980    2.9869 C.2       6 UNK         0.5070 
     43 O          27.4132   33.1774    3.4235 O.2       6 UNK        -0.5237 
     44 N          27.2051   31.6929    1.7227 N.am      7 UNK        -0.4739 
     45 CA         27.9904   32.4329    0.7297 C.3       7 UNK         0.0276 
     46 CB         27.4059   32.1953   -0.6719 C.3       7 UNK        -0.1927 
     47 C          29.4714   32.0254    0.7678 C.2       7 UNK         0.5013 
     48 O          30.3338   32.8617    0.4940 O.2       7 UNK        -0.5193 
     49 N          29.7377   30.7556    1.1058 N.am      8 UNK        -0.4253 
     50 CA         31.0713   30.2026    1.3461 C.3       8 UNK         0.0242 
     51 CB         30.9479   28.6781    1.4984 C.3       8 UNK        -0.2000 
     52 C          31.7468   30.8296    2.5823 C.2       8 UNK         0.4948 
     53 O          31.0659   31.3600    3.4635 O.2       8 UNK        -0.5275 
     54 N          33.0799   30.7490    2.6313 N.am      9 UNK        -0.4246 
     55 CA         33.9141   31.3305    3.6810 C.3       9 UNK         0.0261 
     56 CB         34.2879   32.7737    3.2891 C.3       9 UNK        -0.1959 
     57 C          35.1616   30.4643    3.8946 C.2       9 UNK         0.5033 
     58 O          35.3973   29.5285    3.1260 O.2       9 UNK        -0.5390 
     59 N          35.9290   30.8026    4.9415 N.am      10 UNK        -0.4215 
     60 CA         37.1906   30.1807    5.3758 C.3       10 UNK         0.0240 
     61 CB         38.2688   30.2704    4.2735 C.3       10 UNK        -0.1982 
     62 C          37.0484   28.7523    5.9426 C.2       10 UNK         0.4970 
     63 O          38.0622   28.0787    6.1344 O.2       10 UNK        -0.4916 
     64 N          35.8140   28.3248    6.2341 N.am      11 UNK        -0.4279 
     65 CA         35.4897   27.0365    6.8649 C.3       11 UNK         0.1003 
     66 C          35.6086   27.0230    8.4176 C.2       11 UNK         0.5709 
     67 N          35.8665   28.1464    9.0777 N.am      11 UNK        -0.7358 
     68 O          35.4854   25.9674    9.0346 O.2       11 UNK        -0.4999 
     69 C69        34.1281   26.4881    6.3648 C.3       12 UNK        -0.0954 
     70 S70        32.7160   27.6258    6.6107 S.3       12 UNK        -0.2268 
     71 C71        32.1064   27.8609    4.9094 C.3       12 UNK         0.0203 
     72 H72        29.6107   23.3218   -5.3881 H         1 UNK         0.0888 
     73 H73        30.7066   22.4298   -4.3305 H         1 UNK         0.0888 
     74 H74        29.0090   21.9587   -4.4408 H         1 UNK         0.0888 
     75 H75        31.1533   23.5357   -2.4375 H         1 UNK         0.3017 
     76 H76        29.8951   25.8793   -1.6112 H         1 UNK         0.0873 
     77 H77        32.2216   25.3782   -1.0285 H         1 UNK         0.0745 
     78 H78        31.3054   25.7315    0.4042 H         1 UNK         0.0745 
     79 H79        33.1652   23.0084    2.3544 H         1 UNK         0.0705 
     80 H80        33.6713   24.4921    1.5887 H         1 UNK         0.0705 
     81 H81        33.3004   26.2774    3.0469 H         1 UNK         0.1334 
     82 H82        29.7770   26.5697    5.4550 H         1 UNK         0.1417 
     83 H83        30.3106   23.2105    2.8317 H         1 UNK         0.1562 
     84 H84        28.4115   24.4893    5.7225 H         1 UNK         0.0748 
     85 H85        28.6199   23.1556    4.6248 H         1 UNK         0.0748 
     86 H86        27.4873   26.6764    5.1523 H         1 UNK         0.0940 
     87 H87        25.8610   26.6435    4.5410 H         1 UNK         0.0940 
     88 H88        28.2943   27.2924    2.8005 H         1 UNK         0.0703 
     89 H89        25.7001   26.6957    2.0114 H         1 UNK         0.3081 
     90 H90        24.5401   28.0467    0.1430 H         1 UNK         0.0719 
     91 H91        26.7041   28.5341   -1.9782 H         1 UNK         0.0809 
     92 H92        24.9708   28.4763   -2.2958 H         1 UNK         0.0809 
     93 H93        25.6303   29.7467   -1.2865 H         1 UNK         0.0809 
     94 H94        26.4437   25.9238   -0.4945 H         1 UNK         0.2990 
     95 H95        23.8861   23.6920   -1.2942 H         1 UNK         0.0690 
     96 H96        23.8348   24.5773   -3.6015 H         1 UNK         0.0788 
     97 H97        24.9003   23.1833   -3.5254 H         1 UNK         0.0788 
     98 H98        25.5761   24.8111   -3.5925 H         1 UNK         0.0788 
     99 H99        26.7818   23.7186   -1.7140 H         1 UNK         0.2993 
    100 H100       27.6132   22.9520    1.6016 H         1 UNK         0.0949 
    101 H101       28.4762   20.7524    0.8619 H         1 UNK         0.0767 
    102 H102       26.7326   20.6783    1.0470 H         1 UNK         0.0767 
    103 H103       27.4337   20.7895   -0.5620 H         1 UNK         0.0767 
    104 H104       29.1910   22.5761   -0.6766 H         1 UNK         0.3013 
    105 H105       25.4931   29.3824    3.0392 H         1 UNK         0.3121 
    106 H106       26.6558   31.2663    4.9252 H         1 UNK         0.0774 
    107 H107       24.6667   32.6385    4.3175 H         1 UNK         0.0815 
    108 H108       24.2578   31.5172    3.0275 H         1 UNK         0.0815 
    109 H109       24.1920   30.9957    4.7124 H         1 UNK         0.0815 
    110 H110       26.9046   30.7639    1.4508 H         1 UNK         0.2987 
    111 H111       27.9317   33.5028    0.9422 H         1 UNK         0.0949 
    112 H112       27.5204   31.1578   -0.9863 H         1 UNK         0.0806 
    113 H113       26.3460   32.4470   -0.7113 H         1 UNK         0.0806 
    114 H114       27.9146   32.8139   -1.4123 H         1 UNK         0.0806 
    115 H115       28.9528   30.1311    1.2540 H         1 UNK         0.3010 
    116 H116       31.6845   30.4215    0.4695 H         1 UNK         0.0829 
    117 H117       30.4511   28.2279    0.6384 H         1 UNK         0.0813 
    118 H118       31.9289   28.2109    1.5877 H         1 UNK         0.0813 
    119 H119       30.3762   28.4129    2.3879 H         1 UNK         0.0813 
    120 H120       33.5889   30.2180    1.9353 H         1 UNK         0.3038 
    121 H121       33.3609   31.3415    4.6230 H         1 UNK         0.0769 
    122 H122       34.8807   33.2604    4.0641 H         1 UNK         0.0811 
    123 H123       33.3979   33.3852    3.1383 H         1 UNK         0.0811 
    124 H124       34.8698   32.8007    2.3668 H         1 UNK         0.0811 
    125 H125       35.6269   31.5846    5.5077 H         1 UNK         0.3204 
    126 H126       37.5400   30.7869    6.2129 H         1 UNK         0.0748 
    127 H127       39.2458   29.9703    4.6545 H         1 UNK         0.0771 
    128 H128       38.0403   29.6219    3.4273 H         1 UNK         0.0771 
    129 H129       38.3697   31.2889    3.8986 H         1 UNK         0.0771 
    130 H130       35.0312   28.9367    6.0633 H         1 UNK         0.2980 
    131 H131       36.2392   26.3162    6.5316 H         1 UNK         0.0545 
    132 H132       35.9481   28.1197   10.0818 H         1 UNK         0.3459 
    133 H133       35.9722   29.0181    8.5856 H         1 UNK         0.3459 
    134 H134       34.2255   26.2579    5.3049 H         1 UNK         0.0616 
    135 H135       33.8902   25.5365    6.8435 H         1 UNK         0.0616 
    136 H136       32.9061   28.2786    4.2966 H         1 UNK         0.0634 
    137 H137       31.3063   28.6030    4.9185 H         1 UNK         0.0634 
@<TRIPOS>BOND
     1    1    2 1    
     2    1   72 1    
     3    1   73 1    
     4    1   74 1    
     5    2    3 2    
     6    2    4 am   BACKBONE|DICT|INTERRES
     7    4    5 1    
     8    4   75 1    
     9    5    6 1    
    10    5   35 1    
    11    5   76 1    
    12    6    7 1    
    13    6   77 1    
    14    6   78 1    
    15    7    8 1    
    16    8    9 1    
    17    8   79 1    
    18    8   80 1    
    19    9   10 ar   
    20    9   14 ar   
    21   10   11 ar   
    22   10   81 1    
    23   11   12 ar   
    24   11   71 1    
    25   12   13 ar   
    26   12   82 1    
    27   13   14 ar   
    28   13   15 1    
    29   14   83 1    
    30   15   16 1    
    31   15   84 1    
    32   15   85 1    
    33   16   17 1    
    34   17   18 1    
    35   17   86 1    
    36   17   87 1    
    37   18   19 1    
    38   18   37 1    
    39   18   88 1    
    40   19   20 am   BACKBONE|DICT|INTERRES
    41   19   89 1    
    42   20   21 2    
    43   20   22 1    
    44   22   23 1    
    45   22   24 1    
    46   22   90 1    
    47   23   91 1    
    48   23   92 1    
    49   23   93 1    
    50   24   25 am   BACKBONE|DICT|INTERRES
    51   24   94 1    
    52   25   26 2    
    53   25   27 1    
    54   27   28 1    
    55   27   29 1    
    56   27   95 1    
    57   28   96 1    
    58   28   97 1    
    59   28   98 1    
    60   29   30 am   BACKBONE|DICT|INTERRES
    61   29   99 1    
    62   30   31 2    
    63   30   32 1    
    64   32   33 1    
    65   32   34 1    
    66   32  100 1    
    67   33  101 1    
    68   33  102 1    
    69   33  103 1    
    70   34   35 am   BACKBONE|DICT|INTERRES
    71   34  104 1    
    72   35   36 2    
    73   37   38 2    
    74   37   39 am   BACKBONE|DICT|INTERRES
    75   39   40 1    
    76   39  105 1    
    77   40   41 1    
    78   40   42 1    
    79   40  106 1    
    80   41  107 1    
    81   41  108 1    
    82   41  109 1    
    83   42   43 2    
    84   42   44 am   BACKBONE|DICT|INTERRES
    85   44   45 1    
    86   44  110 1    
    87   45   46 1    
    88   45   47 1    
    89   45  111 1    
    90   46  112 1    
    91   46  113 1    
    92   46  114 1    
    93   47   48 2    
    94   47   49 am   BACKBONE|DICT|INTERRES
    95   49   50 1    
    96   49  115 1    
    97   50   51 1    
    98   50   52 1    
    99   50  116 1    
   100   51  117 1    
   101   51  118 1    
   102   51  119 1    
   103   52   53 2    
   104   52   54 am   BACKBONE|DICT|INTERRES
   105   54   55 1    
   106   54  120 1    
   107   55   56 1    
   108   55   57 1    
   109   55  121 1    
   110   56  122 1    
   111   56  123 1    
   112   56  124 1    
   113   57   58 2    
   114   57   59 am   BACKBONE|DICT|INTERRES
   115   59   60 1    
   116   59  125 1    
   117   60   61 1    
   118   60   62 1    
   119   60  126 1    
   120   61  127 1    
   121   61  128 1    
   122   61  129 1    
   123   62   63 2    
   124   62   64 am   BACKBONE|DICT|INTERRES
   125   64   65 1    
   126   64  130 1    
   127   65   66 1    
   128   65   69 1    
   129   65  131 1    
   130   66   67 am   BACKBONE|DICT|INTERRES
   131   66   68 2    
   132   67  132 1    
   133   67  133 1    
   134   69   70 1    
   135   69  134 1    
   136   69  135 1    
   137   70   71 1    
   138   71  136 1    
   139   71  137 1    
@<TRIPOS>SUBSTRUCTURE
     1 UNK         1 GROUP             0       ****    0 ROOT    
