@<TRIPOS>MOLECULE
3R136
137   139    1
SMALL
USER_CHARGES


@<TRIPOS>ATOM
      1 CA         27.6530   18.2517   -1.4639 C.3       0 UNK        -0.1979 
      2 C          27.8434   19.7607   -1.5179 C.2       0 UNK         0.4864 
      3 O          27.5599   20.3723   -2.5492 O.2       0 UNK        -0.5359 
      4 N          28.3289   20.3537   -0.4196 N.am      1 UNK        -0.4318 
      5 CA         28.5381   21.7944   -0.2574 C.3       1 UNK         0.0824 
      6 C6         29.8125   22.1008    0.5722 C.3       12 UNK        -0.0944 
      7 S7         31.3372   21.6736   -0.3357 S.3       12 UNK        -0.2672 
      8 C8         32.6188   21.9130    0.9401 C.3       12 UNK         0.0333 
      9 C9         32.5802   23.3186    1.5216 C.ar      12 UNK        -0.0807 
     10 C10        33.1513   24.3914    0.8306 C.ar      12 UNK        -0.0894 
     11 C11        33.0479   25.6940    1.3311 C.ar      12 UNK        -0.0804 
     12 C12        32.3608   25.9160    2.5293 C.ar      12 UNK        -0.0824 
     13 C13        31.8168   24.8461    3.2439 C.ar      12 UNK        -0.0762 
     14 C14        31.9390   23.5495    2.7408 C.ar      12 UNK        -0.0782 
     15 C15        31.0777   25.0777    4.5505 C.3       12 UNK         0.0230 
     16 S16        29.2866   24.8920    4.3019 S.3       12 UNK        -0.2608 
     17 C17        28.6769   26.5766    4.6414 C.3       12 UNK        -0.0989 
     18 CA         29.0590   27.6461    3.5825 C.3       5 UNK         0.0716 
     19 N          28.9036   27.1785    2.2020 N.am      5 UNK        -0.4135 
     20 C          29.3797   27.8091    1.1179 C.2       4 UNK         0.5031 
     21 O          30.0241   28.8560    1.1596 O.2       4 UNK        -0.5229 
     22 CA         29.0379   27.1951   -0.2524 C.3       4 UNK         0.0329 
     23 CB         30.0970   26.1624   -0.6664 C.3       4 UNK        -0.2001 
     24 N          27.7133   26.5720   -0.2862 N.am      4 UNK        -0.4303 
     25 C          26.5557   27.2246   -0.1064 C.2       3 UNK         0.5044 
     26 O          26.4745   28.4405    0.0626 O.2       3 UNK        -0.5152 
     27 CA         25.2851   26.3614   -0.0345 C.3       3 UNK         0.0319 
     28 CB         24.7068   26.1279   -1.4383 C.3       3 UNK        -0.2001 
     29 N          25.5181   25.0710    0.6223 N.am      3 UNK        -0.4354 
     30 C          25.8922   24.9160    1.8989 C.2       2 UNK         0.4964 
     31 O          26.0421   25.8571    2.6780 O.2       2 UNK        -0.5047 
     32 CA         26.2020   23.4850    2.3731 C.3       2 UNK         0.0288 
     33 CB         24.9251   22.6253    2.4620 C.3       2 UNK        -0.2113 
     34 N          27.2646   22.8186    1.6003 N.am      2 UNK        -0.4145 
     35 C          27.2505   22.4272    0.3144 C.2       1 UNK         0.5006 
     36 O          26.2760   22.5701   -0.4269 O.2       1 UNK        -0.5103 
     37 C          28.2507   28.9330    3.8379 C.2       5 UNK         0.5055 
     38 O          28.7039   29.7969    4.5868 O.2       5 UNK        -0.5220 
     39 N          27.0634   29.0325    3.2219 N.am      6 UNK        -0.4450 
     40 CA         26.2128   30.2215    3.2687 C.3       6 UNK         0.0367 
     41 CB         24.7817   29.8519    2.8459 C.3       6 UNK        -0.1929 
     42 C          26.7696   31.3573    2.3951 C.2       6 UNK         0.5070 
     43 O          26.7164   32.5163    2.8068 O.2       6 UNK        -0.5237 
     44 N          27.2930   31.0069    1.2114 N.am      7 UNK        -0.4739 
     45 CA         27.8921   31.9399    0.2552 C.3       7 UNK         0.0276 
     46 CB         28.1172   31.2259   -1.0871 C.3       7 UNK        -0.1927 
     47 C          29.2014   32.5710    0.7577 C.2       7 UNK         0.5013 
     48 O          29.3939   33.7738    0.5736 O.2       7 UNK        -0.5193 
     49 N          30.0707   31.7613    1.3747 N.am      8 UNK        -0.4253 
     50 CA         31.3637   32.1766    1.9075 C.3       8 UNK         0.0242 
     51 CB         32.4799   31.6526    0.9848 C.3       8 UNK        -0.2000 
     52 C          31.4972   31.6420    3.3363 C.2       8 UNK         0.4948 
     53 O          31.9701   30.5229    3.5282 O.2       8 UNK        -0.5275 
     54 N          31.0960   32.4557    4.3224 N.am      9 UNK        -0.4246 
     55 CA         31.1079   32.1146    5.7528 C.3       9 UNK         0.0261 
     56 CB         30.4645   33.2607    6.5503 C.3       9 UNK        -0.1959 
     57 C          32.4957   31.7685    6.3296 C.2       9 UNK         0.5033 
     58 O          32.5710   31.0356    7.3167 O.2       9 UNK        -0.5390 
     59 N          33.5626   32.2922    5.7108 N.am      10 UNK        -0.4215 
     60 CA         34.9554   31.9936    6.0522 C.3       10 UNK         0.0240 
     61 CB         35.8452   33.1457    5.5553 C.3       10 UNK        -0.1982 
     62 C          35.4546   30.6496    5.4851 C.2       10 UNK         0.4970 
     63 O          36.4815   30.1562    5.9536 O.2       10 UNK        -0.4916 
     64 N          34.7602   30.0961    4.4825 N.am      11 UNK        -0.4279 
     65 CA         35.0918   28.8211    3.8367 C.3       11 UNK         0.1003 
     66 C          34.6386   27.6139    4.7033 C.2       11 UNK         0.5709 
     67 N          35.4064   26.5329    4.7153 N.am      11 UNK        -0.7358 
     68 O          33.5914   27.6390    5.3469 O.2       11 UNK        -0.4999 
     69 C69        34.5004   28.7970    2.4046 C.3       12 UNK        -0.0954 
     70 S70        35.1715   27.4904    1.3244 S.3       12 UNK        -0.2268 
     71 C71        33.6469   26.8581    0.5536 C.3       12 UNK         0.0203 
     72 H72        26.6059   17.9997   -1.6298 H         1 UNK         0.0888 
     73 H73        28.2468   17.7707   -2.2408 H         1 UNK         0.0888 
     74 H74        27.9534   17.8357   -0.5024 H         1 UNK         0.0888 
     75 H75        28.5336   19.7890    0.3924 H         1 UNK         0.3017 
     76 H76        28.6783   22.2502   -1.2405 H         1 UNK         0.0873 
     77 H77        29.8657   23.1648    0.8067 H         1 UNK         0.0745 
     78 H78        29.8055   21.5645    1.5230 H         1 UNK         0.0745 
     79 H79        33.5989   21.7239    0.4997 H         1 UNK         0.0705 
     80 H80        32.4874   21.1670    1.7254 H         1 UNK         0.0705 
     81 H81        33.6536   24.2121   -0.1102 H         1 UNK         0.1334 
     82 H82        32.2492   26.9197    2.9118 H         1 UNK         0.1417 
     83 H83        31.4993   22.7241    3.2841 H         1 UNK         0.1562 
     84 H84        31.3121   26.0607    4.9615 H         1 UNK         0.0748 
     85 H85        31.4115   24.3509    5.2923 H         1 UNK         0.0748 
     86 H86        29.0325   26.8826    5.6273 H         1 UNK         0.0940 
     87 H87        27.5919   26.4972    4.7349 H         1 UNK         0.0940 
     88 H88        30.1131   27.8975    3.7193 H         1 UNK         0.0703 
     89 H89        28.3647   26.3334    2.0851 H         1 UNK         0.3081 
     90 H90        29.0407   27.9997   -0.9900 H         1 UNK         0.0719 
     91 H91        31.0693   26.6387   -0.7883 H         1 UNK         0.0809 
     92 H92        29.8513   25.6924   -1.6188 H         1 UNK         0.0809 
     93 H93        30.2127   25.3762    0.0798 H         1 UNK         0.0809 
     94 H94        27.6780   25.5744   -0.4308 H         1 UNK         0.2990 
     95 H95        24.5470   26.9092    0.5553 H         1 UNK         0.0690 
     96 H96        23.7605   25.5886   -1.3916 H         1 UNK         0.0788 
     97 H97        25.3887   25.5541   -2.0674 H         1 UNK         0.0788 
     98 H98        24.5141   27.0756   -1.9435 H         1 UNK         0.0788 
     99 H99        25.4727   24.2338    0.0465 H         1 UNK         0.2993 
    100 H100       26.5927   23.5786    3.3880 H         1 UNK         0.0949 
    101 H101       24.1866   23.0954    3.1129 H         1 UNK         0.0767 
    102 H102       24.4522   22.4811    1.4903 H         1 UNK         0.0767 
    103 H103       25.1412   21.6407    2.8769 H         1 UNK         0.0767 
    104 H104       28.1197   22.6702    2.1179 H         1 UNK         0.3013 
    105 H105       26.7510   28.2652    2.6415 H         1 UNK         0.3121 
    106 H106       26.1777   30.5797    4.3001 H         1 UNK         0.0774 
    107 H107       24.1214   30.7173    2.9154 H         1 UNK         0.0815 
    108 H108       24.7395   29.4938    1.8170 H         1 UNK         0.0815 
    109 H109       24.3665   29.0749    3.4881 H         1 UNK         0.0815 
    110 H110       27.2223   30.0363    0.9192 H         1 UNK         0.2987 
    111 H111       27.1779   32.7500    0.0919 H         1 UNK         0.0949 
    112 H112       27.1865   30.8179   -1.4818 H         1 UNK         0.0806 
    113 H113       28.5126   31.9155   -1.8341 H         1 UNK         0.0806 
    114 H114       28.8289   30.4057   -0.9920 H         1 UNK         0.0806 
    115 H115       29.8564   30.7700    1.4655 H         1 UNK         0.3010 
    116 H116       31.4403   33.2654    1.9466 H         1 UNK         0.0829 
    117 H117       32.4109   32.0969   -0.0080 H         1 UNK         0.0813 
    118 H118       33.4651   31.8972    1.3834 H         1 UNK         0.0813 
    119 H119       32.4303   30.5690    0.8672 H         1 UNK         0.0813 
    120 H120       30.7041   33.3541    4.0778 H         1 UNK         0.3038 
    121 H121       30.4880   31.2253    5.8784 H         1 UNK         0.0769 
    122 H122       31.0192   34.1931    6.4378 H         1 UNK         0.0811 
    123 H123       30.4338   33.0261    7.6154 H         1 UNK         0.0811 
    124 H124       29.4370   33.4377    6.2315 H         1 UNK         0.0811 
    125 H125       33.4044   32.8987    4.9195 H         1 UNK         0.3204 
    126 H126       35.0453   31.9410    7.1395 H         1 UNK         0.0748 
    127 H127       36.8891   32.9775    5.8244 H         1 UNK         0.0771 
    128 H128       35.8020   33.2518    4.4705 H         1 UNK         0.0771 
    129 H129       35.5486   34.0964    5.9990 H         1 UNK         0.0771 
    130 H130       33.8623   30.4881    4.2194 H         1 UNK         0.2980 
    131 H131       36.1789   28.7777    3.7422 H         1 UNK         0.0545 
    132 H132       36.2499   26.4901    4.1656 H         1 UNK         0.3459 
    133 H133       35.1214   25.7361    5.2615 H         1 UNK         0.3459 
    134 H134       33.4143   28.7334    2.4418 H         1 UNK         0.0616 
    135 H135       34.7193   29.7420    1.9057 H         1 UNK         0.0616 
    136 H136       32.9132   27.6597    0.4548 H         1 UNK         0.0634 
    137 H137       33.8853   26.5460   -0.4642 H         1 UNK         0.0634 
@<TRIPOS>BOND
     1    1    2 1    
     2    1   72 1    
     3    1   73 1    
     4    1   74 1    
     5    2    3 2    
     6    2    4 am   BACKBONE|DICT|INTERRES
     7    4    5 1    
     8    4   75 1    
     9    5    6 1    
    10    5   35 1    
    11    5   76 1    
    12    6    7 1    
    13    6   77 1    
    14    6   78 1    
    15    7    8 1    
    16    8    9 1    
    17    8   79 1    
    18    8   80 1    
    19    9   10 ar   
    20    9   14 ar   
    21   10   11 ar   
    22   10   81 1    
    23   11   12 ar   
    24   11   71 1    
    25   12   13 ar   
    26   12   82 1    
    27   13   14 ar   
    28   13   15 1    
    29   14   83 1    
    30   15   16 1    
    31   15   84 1    
    32   15   85 1    
    33   16   17 1    
    34   17   18 1    
    35   17   86 1    
    36   17   87 1    
    37   18   19 1    
    38   18   37 1    
    39   18   88 1    
    40   19   20 am   BACKBONE|DICT|INTERRES
    41   19   89 1    
    42   20   21 2    
    43   20   22 1    
    44   22   23 1    
    45   22   24 1    
    46   22   90 1    
    47   23   91 1    
    48   23   92 1    
    49   23   93 1    
    50   24   25 am   BACKBONE|DICT|INTERRES
    51   24   94 1    
    52   25   26 2    
    53   25   27 1    
    54   27   28 1    
    55   27   29 1    
    56   27   95 1    
    57   28   96 1    
    58   28   97 1    
    59   28   98 1    
    60   29   30 am   BACKBONE|DICT|INTERRES
    61   29   99 1    
    62   30   31 2    
    63   30   32 1    
    64   32   33 1    
    65   32   34 1    
    66   32  100 1    
    67   33  101 1    
    68   33  102 1    
    69   33  103 1    
    70   34   35 am   BACKBONE|DICT|INTERRES
    71   34  104 1    
    72   35   36 2    
    73   37   38 2    
    74   37   39 am   BACKBONE|DICT|INTERRES
    75   39   40 1    
    76   39  105 1    
    77   40   41 1    
    78   40   42 1    
    79   40  106 1    
    80   41  107 1    
    81   41  108 1    
    82   41  109 1    
    83   42   43 2    
    84   42   44 am   BACKBONE|DICT|INTERRES
    85   44   45 1    
    86   44  110 1    
    87   45   46 1    
    88   45   47 1    
    89   45  111 1    
    90   46  112 1    
    91   46  113 1    
    92   46  114 1    
    93   47   48 2    
    94   47   49 am   BACKBONE|DICT|INTERRES
    95   49   50 1    
    96   49  115 1    
    97   50   51 1    
    98   50   52 1    
    99   50  116 1    
   100   51  117 1    
   101   51  118 1    
   102   51  119 1    
   103   52   53 2    
   104   52   54 am   BACKBONE|DICT|INTERRES
   105   54   55 1    
   106   54  120 1    
   107   55   56 1    
   108   55   57 1    
   109   55  121 1    
   110   56  122 1    
   111   56  123 1    
   112   56  124 1    
   113   57   58 2    
   114   57   59 am   BACKBONE|DICT|INTERRES
   115   59   60 1    
   116   59  125 1    
   117   60   61 1    
   118   60   62 1    
   119   60  126 1    
   120   61  127 1    
   121   61  128 1    
   122   61  129 1    
   123   62   63 2    
   124   62   64 am   BACKBONE|DICT|INTERRES
   125   64   65 1    
   126   64  130 1    
   127   65   66 1    
   128   65   69 1    
   129   65  131 1    
   130   66   67 am   BACKBONE|DICT|INTERRES
   131   66   68 2    
   132   67  132 1    
   133   67  133 1    
   134   69   70 1    
   135   69  134 1    
   136   69  135 1    
   137   70   71 1    
   138   71  136 1    
   139   71  137 1    
@<TRIPOS>SUBSTRUCTURE
     1 UNK         1 GROUP             0       ****    0 ROOT    
