@<TRIPOS>MOLECULE
3R136
137   139    1
SMALL
USER_CHARGES


@<TRIPOS>ATOM
      1 CA         29.7774   27.3069    2.6196 C.3       0 UNK        -0.1979 
      2 C          29.3147   26.0230    3.2845 C.2       0 UNK         0.4864 
      3 O          28.4193   26.0613    4.1283 O.2       0 UNK        -0.5359 
      4 N          29.9129   24.8820    2.9115 N.am      1 UNK        -0.4318 
      5 CA         29.5338   23.5561    3.4170 C.3       1 UNK         0.0824 
      6 C6         30.6767   22.5198    3.2617 C.3       12 UNK        -0.0944 
      7 S7         31.0556   22.0286    1.5415 S.3       12 UNK        -0.2672 
      8 C8         32.7296   22.6987    1.2983 C.3       12 UNK         0.0333 
      9 C9         32.6997   24.1881    0.9952 C.ar      12 UNK        -0.0807 
     10 C10        33.1594   25.1170    1.9324 C.ar      12 UNK        -0.0894 
     11 C11        33.1488   26.4836    1.6368 C.ar      12 UNK        -0.0804 
     12 C12        32.6735   26.9207    0.3953 C.ar      12 UNK        -0.0824 
     13 C13        32.1991   25.9989   -0.5437 C.ar      12 UNK        -0.0762 
     14 C14        32.2250   24.6350   -0.2405 C.ar      12 UNK        -0.0782 
     15 C15        31.6669   26.4603   -1.8932 C.3       12 UNK         0.0230 
     16 S16        29.8725   26.1791   -2.0383 S.3       12 UNK        -0.2608 
     17 C17        29.1978   27.5088   -0.9891 C.3       12 UNK        -0.0989 
     18 CA         28.0793   28.2941   -1.7124 C.3       5 UNK         0.0716 
     19 N          26.8989   27.4641   -1.9448 N.am      5 UNK        -0.4135 
     20 C          26.0348   27.6396   -2.9535 C.2       4 UNK         0.5031 
     21 O          26.1649   28.5065   -3.8194 O.2       4 UNK        -0.5229 
     22 CA         24.8241   26.6887   -3.0319 C.3       4 UNK         0.0329 
     23 CB         25.1025   25.5512   -4.0282 C.3       4 UNK        -0.2001 
     24 N          24.4502   26.1099   -1.7404 N.am      4 UNK        -0.4303 
     25 C          23.9170   26.7948   -0.7192 C.2       3 UNK         0.5044 
     26 O          23.5837   27.9781   -0.7922 O.2       3 UNK        -0.5152 
     27 CA         23.7267   26.0424    0.6130 C.3       3 UNK         0.0319 
     28 CB         22.2442   25.6917    0.8225 C.3       3 UNK        -0.2001 
     29 N          24.5319   24.8218    0.7664 N.am      3 UNK        -0.4354 
     30 C          25.8710   24.7686    0.7694 C.2       2 UNK         0.4964 
     31 O          26.6005   25.7353    0.5338 O.2       2 UNK        -0.5047 
     32 CA         26.4994   23.3958    1.0301 C.3       2 UNK         0.0288 
     33 CB         26.7265   22.6475   -0.2946 C.3       2 UNK        -0.2113 
     34 N          27.7848   23.6088    1.6843 N.am      2 UNK        -0.4145 
     35 C          28.1907   23.0548    2.8341 C.2       1 UNK         0.5006 
     36 O          27.5521   22.1938    3.4429 O.2       1 UNK        -0.5103 
     37 C          27.6632   29.5298   -0.8981 C.2       5 UNK         0.5055 
     38 O          27.1176   29.3834    0.1978 O.2       5 UNK        -0.5220 
     39 N          27.9585   30.7241   -1.4256 N.am      6 UNK        -0.4450 
     40 CA         27.7328   32.0108   -0.7639 C.3       6 UNK         0.0367 
     41 CB         27.5133   33.0941   -1.8369 C.3       6 UNK        -0.1929 
     42 C          28.9057   32.3375    0.1787 C.2       6 UNK         0.5070 
     43 O          29.6680   33.2710   -0.0784 O.2       6 UNK        -0.5237 
     44 N          29.0530   31.5334    1.2347 N.am      7 UNK        -0.4739 
     45 CA         30.1123   31.6229    2.2353 C.3       7 UNK         0.0276 
     46 CB         31.3621   30.8771    1.7258 C.3       7 UNK        -0.1927 
     47 C          29.6152   31.0177    3.5533 C.2       7 UNK         0.5013 
     48 O          28.6014   30.3151    3.5630 O.2       7 UNK        -0.5193 
     49 N          30.3578   31.2730    4.6359 N.am      8 UNK        -0.4253 
     50 CA         30.2076   30.5732    5.9121 C.3       8 UNK         0.0242 
     51 CB         30.7675   31.4564    7.0393 C.3       8 UNK        -0.2000 
     52 C          30.9689   29.2413    5.8547 C.2       8 UNK         0.4948 
     53 O          31.9988   29.1647    5.1808 O.2       8 UNK        -0.5275 
     54 N          30.4940   28.2334    6.5989 N.am      9 UNK        -0.4246 
     55 CA         31.0776   26.8842    6.6542 C.3       9 UNK         0.0261 
     56 CB         30.1638   25.9659    7.4811 C.3       9 UNK        -0.1959 
     57 C          32.5260   26.8269    7.1783 C.2       9 UNK         0.5033 
     58 O          33.2427   25.8782    6.8582 O.2       9 UNK        -0.5390 
     59 N          32.9405   27.8491    7.9410 N.am      10 UNK        -0.4215 
     60 CA         34.3239   28.0727    8.3704 C.3       10 UNK         0.0240 
     61 CB         34.3450   29.1736    9.4435 C.3       10 UNK        -0.1982 
     62 C          35.2763   28.4331    7.2119 C.2       10 UNK         0.4970 
     63 O          36.4812   28.2184    7.3459 O.2       10 UNK        -0.4916 
     64 N          34.7286   28.9614    6.1070 N.am      11 UNK        -0.4279 
     65 CA         35.4271   29.2925    4.8561 C.3       11 UNK         0.1003 
     66 C          36.4621   30.4551    4.9441 C.2       11 UNK         0.5709 
     67 N          36.4521   31.2674    5.9945 N.am      11 UNK        -0.7358 
     68 O          37.2647   30.6505    4.0344 O.2       11 UNK        -0.4999 
     69 C69        35.9635   28.0149    4.1378 C.3       12 UNK        -0.0954 
     70 S70        35.3968   27.8870    2.4116 S.3       12 UNK        -0.2268 
     71 C71        33.6402   27.4840    2.6690 C.3       12 UNK         0.0203 
     72 H72        30.4019   27.8830    3.2995 H         1 UNK         0.0888 
     73 H73        30.3486   27.1052    1.7184 H         1 UNK         0.0888 
     74 H74        28.9174   27.9160    2.3412 H         1 UNK         0.0888 
     75 H75        30.6558   24.8942    2.2242 H         1 UNK         0.3017 
     76 H76        29.3646   23.6647    4.4910 H         1 UNK         0.0873 
     77 H77        30.4216   21.6117    3.8109 H         1 UNK         0.0745 
     78 H78        31.5800   22.8988    3.7422 H         1 UNK         0.0745 
     79 H79        33.1952   22.1767    0.4610 H         1 UNK         0.0705 
     80 H80        33.3487   22.4824    2.1704 H         1 UNK         0.0705 
     81 H81        33.5314   24.7783    2.8902 H         1 UNK         0.1334 
     82 H82        32.6672   27.9778    0.1666 H         1 UNK         0.1417 
     83 H83        31.8642   23.9185   -0.9666 H         1 UNK         0.1562 
     84 H84        32.1733   25.9034   -2.6828 H         1 UNK         0.0748 
     85 H85        31.8929   27.5128   -2.0711 H         1 UNK         0.0748 
     86 H86        30.0061   28.1793   -0.6908 H         1 UNK         0.0940 
     87 H87        28.8165   27.0602   -0.0716 H         1 UNK         0.0940 
     88 H88        28.4750   28.6280   -2.6745 H         1 UNK         0.0703 
     89 H89        26.6974   26.7780   -1.2251 H         1 UNK         0.3081 
     90 H90        23.9756   27.2684   -3.4018 H         1 UNK         0.0719 
     91 H91        25.3564   25.9484   -5.0122 H         1 UNK         0.0809 
     92 H92        25.9360   24.9259   -3.7050 H         1 UNK         0.0809 
     93 H93        24.2295   24.9108   -4.1553 H         1 UNK         0.0809 
     94 H94        24.6779   25.1380   -1.5914 H         1 UNK         0.2990 
     95 H95        24.0290   26.7296    1.4063 H         1 UNK         0.0690 
     96 H96        22.0725   25.2591    1.8084 H         1 UNK         0.0788 
     97 H97        21.8885   24.9810    0.0753 H         1 UNK         0.0788 
     98 H98        21.6170   26.5817    0.7499 H         1 UNK         0.0788 
     99 H99        24.0159   23.9699    0.9372 H         1 UNK         0.2993 
    100 H100       25.8328   22.8145    1.6716 H         1 UNK         0.0949 
    101 H101       27.3640   23.2151   -0.9751 H         1 UNK         0.0767 
    102 H102       27.2009   21.6807   -0.1238 H         1 UNK         0.0767 
    103 H103       25.7826   22.4593   -0.8078 H         1 UNK         0.0767 
    104 H104       28.3370   24.3603    1.2945 H         1 UNK         0.3013 
    105 H105       28.4306   30.7589   -2.3182 H         1 UNK         0.3121 
    106 H106       26.8259   31.9566   -0.1572 H         1 UNK         0.0774 
    107 H107       27.3300   34.0660   -1.3768 H         1 UNK         0.0815 
    108 H108       28.3797   33.2012   -2.4908 H         1 UNK         0.0815 
    109 H109       26.6490   32.8644   -2.4602 H         1 UNK         0.0815 
    110 H110       28.3700   30.7990    1.4004 H         1 UNK         0.2987 
    111 H111       30.3551   32.6728    2.4146 H         1 UNK         0.0949 
    112 H112       31.7467   31.3259    0.8100 H         1 UNK         0.0806 
    113 H113       32.1689   30.9029    2.4594 H         1 UNK         0.0806 
    114 H114       31.1449   29.8291    1.5176 H         1 UNK         0.0806 
    115 H115       31.1990   31.8208    4.5275 H         1 UNK         0.3010 
    116 H116       29.1497   30.3787    6.1031 H         1 UNK         0.0829 
    117 H117       30.2517   32.4159    7.0827 H         1 UNK         0.0813 
    118 H118       30.6407   30.9795    8.0121 H         1 UNK         0.0813 
    119 H119       31.8324   31.6550    6.9093 H         1 UNK         0.0813 
    120 H120       29.6492   28.3795    7.1337 H         1 UNK         0.3038 
    121 H121       31.1040   26.5018    5.6321 H         1 UNK         0.0769 
    122 H122       29.1667   25.9033    7.0441 H         1 UNK         0.0811 
    123 H123       30.0623   26.3149    8.5093 H         1 UNK         0.0811 
    124 H124       30.5610   24.9504    7.5184 H         1 UNK         0.0811 
    125 H125       32.2705   28.5680    8.1705 H         1 UNK         0.3204 
    126 H126       34.6914   27.1474    8.8191 H         1 UNK         0.0748 
    127 H127       35.3598   29.3477    9.8043 H         1 UNK         0.0771 
    128 H128       33.9686   30.1223    9.0587 H         1 UNK         0.0771 
    129 H129       33.7402   28.8973   10.3075 H         1 UNK         0.0771 
    130 H130       33.7212   29.0795    6.0609 H         1 UNK         0.2980 
    131 H131       34.6334   29.7196    4.2426 H         1 UNK         0.0545 
    132 H132       35.7956   31.1243    6.7442 H         1 UNK         0.3459 
    133 H133       37.1163   32.0238    6.0396 H         1 UNK         0.3459 
    134 H134       35.6426   27.1054    4.6487 H         1 UNK         0.0616 
    135 H135       37.0538   27.9713    4.1517 H         1 UNK         0.0616 
    136 H136       33.0523   28.4011    2.6171 H         1 UNK         0.0634 
    137 H137       33.4831   27.0845    3.6724 H         1 UNK         0.0634 
@<TRIPOS>BOND
     1    1    2 1    
     2    1   72 1    
     3    1   73 1    
     4    1   74 1    
     5    2    3 2    
     6    2    4 am   BACKBONE|DICT|INTERRES
     7    4    5 1    
     8    4   75 1    
     9    5    6 1    
    10    5   35 1    
    11    5   76 1    
    12    6    7 1    
    13    6   77 1    
    14    6   78 1    
    15    7    8 1    
    16    8    9 1    
    17    8   79 1    
    18    8   80 1    
    19    9   10 ar   
    20    9   14 ar   
    21   10   11 ar   
    22   10   81 1    
    23   11   12 ar   
    24   11   71 1    
    25   12   13 ar   
    26   12   82 1    
    27   13   14 ar   
    28   13   15 1    
    29   14   83 1    
    30   15   16 1    
    31   15   84 1    
    32   15   85 1    
    33   16   17 1    
    34   17   18 1    
    35   17   86 1    
    36   17   87 1    
    37   18   19 1    
    38   18   37 1    
    39   18   88 1    
    40   19   20 am   BACKBONE|DICT|INTERRES
    41   19   89 1    
    42   20   21 2    
    43   20   22 1    
    44   22   23 1    
    45   22   24 1    
    46   22   90 1    
    47   23   91 1    
    48   23   92 1    
    49   23   93 1    
    50   24   25 am   BACKBONE|DICT|INTERRES
    51   24   94 1    
    52   25   26 2    
    53   25   27 1    
    54   27   28 1    
    55   27   29 1    
    56   27   95 1    
    57   28   96 1    
    58   28   97 1    
    59   28   98 1    
    60   29   30 am   BACKBONE|DICT|INTERRES
    61   29   99 1    
    62   30   31 2    
    63   30   32 1    
    64   32   33 1    
    65   32   34 1    
    66   32  100 1    
    67   33  101 1    
    68   33  102 1    
    69   33  103 1    
    70   34   35 am   BACKBONE|DICT|INTERRES
    71   34  104 1    
    72   35   36 2    
    73   37   38 2    
    74   37   39 am   BACKBONE|DICT|INTERRES
    75   39   40 1    
    76   39  105 1    
    77   40   41 1    
    78   40   42 1    
    79   40  106 1    
    80   41  107 1    
    81   41  108 1    
    82   41  109 1    
    83   42   43 2    
    84   42   44 am   BACKBONE|DICT|INTERRES
    85   44   45 1    
    86   44  110 1    
    87   45   46 1    
    88   45   47 1    
    89   45  111 1    
    90   46  112 1    
    91   46  113 1    
    92   46  114 1    
    93   47   48 2    
    94   47   49 am   BACKBONE|DICT|INTERRES
    95   49   50 1    
    96   49  115 1    
    97   50   51 1    
    98   50   52 1    
    99   50  116 1    
   100   51  117 1    
   101   51  118 1    
   102   51  119 1    
   103   52   53 2    
   104   52   54 am   BACKBONE|DICT|INTERRES
   105   54   55 1    
   106   54  120 1    
   107   55   56 1    
   108   55   57 1    
   109   55  121 1    
   110   56  122 1    
   111   56  123 1    
   112   56  124 1    
   113   57   58 2    
   114   57   59 am   BACKBONE|DICT|INTERRES
   115   59   60 1    
   116   59  125 1    
   117   60   61 1    
   118   60   62 1    
   119   60  126 1    
   120   61  127 1    
   121   61  128 1    
   122   61  129 1    
   123   62   63 2    
   124   62   64 am   BACKBONE|DICT|INTERRES
   125   64   65 1    
   126   64  130 1    
   127   65   66 1    
   128   65   69 1    
   129   65  131 1    
   130   66   67 am   BACKBONE|DICT|INTERRES
   131   66   68 2    
   132   67  132 1    
   133   67  133 1    
   134   69   70 1    
   135   69  134 1    
   136   69  135 1    
   137   70   71 1    
   138   71  136 1    
   139   71  137 1    
@<TRIPOS>SUBSTRUCTURE
     1 UNK         1 GROUP             0       ****    0 ROOT    
