@<TRIPOS>MOLECULE
3R136
137   139    1
SMALL
USER_CHARGES


@<TRIPOS>ATOM
      1 CA         30.3655   29.7288   -0.7442 C.3       0 UNK        -0.1979 
      2 C          30.4800   28.2279   -0.9578 C.2       0 UNK         0.4864 
      3 O          30.8054   27.8025   -2.0667 O.2       0 UNK        -0.5359 
      4 N          30.2232   27.4286    0.0904 N.am      1 UNK        -0.4318 
      5 CA         30.3006   25.9597    0.1244 C.3       1 UNK         0.0824 
      6 C6         31.7345   25.4198   -0.1511 C.3       12 UNK        -0.0944 
      7 S7         31.9143   23.6178    0.0953 S.3       12 UNK        -0.2672 
      8 C8         32.6883   23.5310    1.7388 C.3       12 UNK         0.0333 
      9 C9         31.7277   23.9692    2.8327 C.ar      12 UNK        -0.0807 
     10 C10        31.8203   25.2527    3.3767 C.ar      12 UNK        -0.0894 
     11 C11        30.9419   25.6613    4.3833 C.ar      12 UNK        -0.0804 
     12 C12        29.9710   24.7716    4.8511 C.ar      12 UNK        -0.0824 
     13 C13        29.8619   23.4866    4.3084 C.ar      12 UNK        -0.0762 
     14 C14        30.7454   23.0907    3.3000 C.ar      12 UNK        -0.0782 
     15 C15        28.7960   22.5221    4.8129 C.3       12 UNK         0.0230 
     16 S16        27.3037   22.5359    3.7642 S.3       12 UNK        -0.2608 
     17 C17        26.6753   24.2219    4.0600 C.3       12 UNK        -0.0989 
     18 CA         26.9725   25.1569    2.8522 C.3       5 UNK         0.0716 
     19 N          26.1638   24.8557    1.6630 N.am      5 UNK        -0.4135 
     20 C          24.8294   24.9505    1.5651 C.2       4 UNK         0.5031 
     21 O          24.0979   25.3222    2.4855 O.2       4 UNK        -0.5229 
     22 CA         24.2127   24.5583    0.2067 C.3       4 UNK         0.0329 
     23 CB         22.6760   24.7060    0.1815 C.3       4 UNK        -0.2001 
     24 N          24.8053   25.2649   -0.9352 N.am      4 UNK        -0.4303 
     25 C          24.8970   26.5885   -1.1315 C.2       3 UNK         0.5044 
     26 O          24.5248   27.4314   -0.3154 O.2       3 UNK        -0.5152 
     27 CA         25.5218   27.0375   -2.4709 C.3       3 UNK         0.0319 
     28 CB         25.6328   28.5682   -2.6012 C.3       3 UNK        -0.2001 
     29 N          26.8459   26.4494   -2.6842 N.am      3 UNK        -0.4354 
     30 C          27.0841   25.1911   -3.0780 C.2       2 UNK         0.4964 
     31 O          26.1960   24.3881   -3.3668 O.2       2 UNK        -0.5047 
     32 CA         28.5506   24.7333   -3.1004 C.3       2 UNK         0.0288 
     33 CB         29.1685   24.9655   -4.4882 C.3       2 UNK        -0.2113 
     34 N          29.3887   25.3761   -2.0840 N.am      2 UNK        -0.4145 
     35 C          29.2232   25.2901   -0.7567 C.2       1 UNK         0.5006 
     36 O          28.2705   24.7197   -0.2221 O.2       1 UNK        -0.5103 
     37 C          26.9401   26.6588    3.2071 C.2       5 UNK         0.5055 
     38 O          26.8535   27.0196    4.3829 O.2       5 UNK        -0.5220 
     39 N          27.0253   27.5144    2.1776 N.am      6 UNK        -0.4450 
     40 CA         27.1409   28.9659    2.3168 C.3       6 UNK         0.0367 
     41 CB         26.9957   29.6318    0.9407 C.3       6 UNK        -0.1929 
     42 C          28.4728   29.3613    2.9731 C.2       6 UNK         0.5070 
     43 O          29.5256   28.8614    2.5648 O.2       6 UNK        -0.5237 
     44 N          28.3940   30.2716    3.9519 N.am      7 UNK        -0.4739 
     45 CA         29.5055   30.7270    4.7939 C.3       7 UNK         0.0276 
     46 CB         28.9393   31.5284    5.9771 C.3       7 UNK        -0.1927 
     47 C          30.5837   31.5447    4.0643 C.2       7 UNK         0.5013 
     48 O          31.6773   31.6994    4.6078 O.2       7 UNK        -0.5193 
     49 N          30.2867   32.0307    2.8496 N.am      8 UNK        -0.4253 
     50 CA         31.1812   32.8311    2.0010 C.3       8 UNK         0.0242 
     51 CB         30.4166   33.2860    0.7466 C.3       8 UNK        -0.2000 
     52 C          32.5093   32.1445    1.6180 C.2       8 UNK         0.4948 
     53 O          33.4474   32.8367    1.2224 O.2       8 UNK        -0.5275 
     54 N          32.5844   30.8145    1.7742 N.am      9 UNK        -0.4246 
     55 CA         33.8152   30.0261    1.6698 C.3       9 UNK         0.0261 
     56 CB         33.4455   28.5462    1.4768 C.3       9 UNK        -0.1959 
     57 C          34.7727   30.1963    2.8691 C.2       9 UNK         0.5033 
     58 O          35.9142   29.7436    2.7740 O.2       9 UNK        -0.5390 
     59 N          34.3071   30.8226    3.9638 N.am      10 UNK        -0.4215 
     60 CA         35.0211   31.0713    5.2228 C.3       10 UNK         0.0240 
     61 CB         36.2088   32.0351    5.0094 C.3       10 UNK        -0.1982 
     62 C          35.4113   29.7698    5.9487 C.2       10 UNK         0.4970 
     63 O          36.5436   29.6356    6.4179 O.2       10 UNK        -0.4916 
     64 N          34.4597   28.8301    6.0149 N.am      11 UNK        -0.4279 
     65 CA         34.5903   27.5497    6.7221 C.3       11 UNK         0.1003 
     66 C          34.6871   27.6953    8.2688 C.2       11 UNK         0.5709 
     67 N          35.2194   26.6898    8.9511 N.am      11 UNK        -0.7358 
     68 O          34.2690   28.6917    8.8573 O.2       11 UNK        -0.4999 
     69 C69        33.4904   26.5462    6.2841 C.3       12 UNK        -0.0954 
     70 S70        31.7779   27.1012    6.6111 S.3       12 UNK        -0.2268 
     71 C71        31.0267   27.0692    4.9536 C.3       12 UNK         0.0203 
     72 H72        29.6004   30.1443   -1.3993 H         1 UNK         0.0888 
     73 H73        30.1067   29.9776    0.2826 H         1 UNK         0.0888 
     74 H74        31.3138   30.2116   -0.9792 H         1 UNK         0.0888 
     75 H75        29.9661   27.8606    0.9763 H         1 UNK         0.3017 
     76 H76        30.0516   25.6922    1.1522 H         1 UNK         0.0873 
     77 H77        32.4509   25.9336    0.4897 H         1 UNK         0.0745 
     78 H78        32.0479   25.6445   -1.1713 H         1 UNK         0.0745 
     79 H79        33.0060   22.5039    1.9245 H         1 UNK         0.0705 
     80 H80        33.5962   24.1362    1.7498 H         1 UNK         0.0705 
     81 H81        32.5759   25.9342    3.0131 H         1 UNK         0.1334 
     82 H82        29.2983   25.0881    5.6363 H         1 UNK         0.1417 
     83 H83        30.6647   22.1000    2.8732 H         1 UNK         0.1562 
     84 H84        28.5219   22.7571    5.8426 H         1 UNK         0.0748 
     85 H85        29.2004   21.5090    4.8335 H         1 UNK         0.0748 
     86 H86        27.1212   24.5956    4.9817 H         1 UNK         0.0940 
     87 H87        25.6060   24.1695    4.2668 H         1 UNK         0.0940 
     88 H88        28.0066   24.9791    2.5532 H         1 UNK         0.0703 
     89 H89        26.7034   24.5825    0.8448 H         1 UNK         0.3081 
     90 H90        24.4418   23.5009    0.0649 H         1 UNK         0.0719 
     91 H91        22.3671   25.7410    0.3330 H         1 UNK         0.0809 
     92 H92        22.2601   24.3675   -0.7674 H         1 UNK         0.0809 
     93 H93        22.2123   24.1094    0.9682 H         1 UNK         0.0809 
     94 H94        25.1738   24.6757   -1.6761 H         1 UNK         0.2990 
     95 H95        24.8533   26.6903   -3.2616 H         1 UNK         0.0690 
     96 H96        25.9905   28.8550   -3.5903 H         1 UNK         0.0788 
     97 H97        26.3159   28.9900   -1.8648 H         1 UNK         0.0788 
     98 H98        24.6624   29.0463   -2.4604 H         1 UNK         0.0788 
     99 H99        27.6403   27.0273   -2.4527 H         1 UNK         0.2993 
    100 H100       28.5563   23.6605   -2.8958 H         1 UNK         0.0949 
    101 H101       30.1760   24.5530   -4.5471 H         1 UNK         0.0767 
    102 H102       28.5759   24.4823   -5.2665 H         1 UNK         0.0767 
    103 H103       29.2258   26.0274   -4.7317 H         1 UNK         0.0767 
    104 H104       30.1443   25.9704   -2.4125 H         1 UNK         0.3013 
    105 H105       27.0575   27.1398    1.2419 H         1 UNK         0.3121 
    106 H106       26.3194   29.3077    2.9503 H         1 UNK         0.0774 
    107 H107       27.1792   30.7057    0.9974 H         1 UNK         0.0815 
    108 H108       27.6913   29.2167    0.2130 H         1 UNK         0.0815 
    109 H109       25.9865   29.5028    0.5504 H         1 UNK         0.0815 
    110 H110       27.4814   30.6300    4.1968 H         1 UNK         0.2987 
    111 H111       30.0041   29.8433    5.1950 H         1 UNK         0.0949 
    112 H112       28.4082   32.4209    5.6440 H         1 UNK         0.0806 
    113 H113       28.2501   30.9273    6.5706 H         1 UNK         0.0806 
    114 H114       29.7366   31.8549    6.6468 H         1 UNK         0.0806 
    115 H115       29.3595   31.8536    2.4928 H         1 UNK         0.3010 
    116 H116       31.4493   33.7220    2.5728 H         1 UNK         0.0829 
    117 H117       29.5491   33.8917    1.0094 H         1 UNK         0.0813 
    118 H118       31.0500   33.8980    0.1026 H         1 UNK         0.0813 
    119 H119       30.0681   32.4427    0.1517 H         1 UNK         0.0813 
    120 H120       31.7611   30.3301    2.1042 H         1 UNK         0.3038 
    121 H121       34.3614   30.3557    0.7833 H         1 UNK         0.0769 
    122 H122       34.3291   27.9067    1.5058 H         1 UNK         0.0811 
    123 H123       32.9757   28.3879    0.5081 H         1 UNK         0.0811 
    124 H124       32.7607   28.1958    2.2480 H         1 UNK         0.0811 
    125 H125       33.3419   31.1469    3.9628 H         1 UNK         0.3204 
    126 H126       34.3086   31.5764    5.8770 H         1 UNK         0.0748 
    127 H127       36.6551   32.3209    5.9627 H         1 UNK         0.0771 
    128 H128       36.9965   31.5840    4.4053 H         1 UNK         0.0771 
    129 H129       35.8899   32.9522    4.5138 H         1 UNK         0.0771 
    130 H130       33.5456   29.0351    5.6425 H         1 UNK         0.2980 
    131 H131       35.5448   27.1266    6.4021 H         1 UNK         0.0545 
    132 H132       35.5591   25.8633    8.4844 H         1 UNK         0.3459 
    133 H133       35.2831   26.7597    9.9547 H         1 UNK         0.3459 
    134 H134       33.6090   26.3449    5.2200 H         1 UNK         0.0616 
    135 H135       33.6325   25.5825    6.7759 H         1 UNK         0.0616 
    136 H136       31.5828   27.7308    4.2888 H         1 UNK         0.0634 
    137 H137       30.0185   27.4796    5.0202 H         1 UNK         0.0634 
@<TRIPOS>BOND
     1    1    2 1    
     2    1   72 1    
     3    1   73 1    
     4    1   74 1    
     5    2    3 2    
     6    2    4 am   BACKBONE|DICT|INTERRES
     7    4    5 1    
     8    4   75 1    
     9    5    6 1    
    10    5   35 1    
    11    5   76 1    
    12    6    7 1    
    13    6   77 1    
    14    6   78 1    
    15    7    8 1    
    16    8    9 1    
    17    8   79 1    
    18    8   80 1    
    19    9   10 ar   
    20    9   14 ar   
    21   10   11 ar   
    22   10   81 1    
    23   11   12 ar   
    24   11   71 1    
    25   12   13 ar   
    26   12   82 1    
    27   13   14 ar   
    28   13   15 1    
    29   14   83 1    
    30   15   16 1    
    31   15   84 1    
    32   15   85 1    
    33   16   17 1    
    34   17   18 1    
    35   17   86 1    
    36   17   87 1    
    37   18   19 1    
    38   18   37 1    
    39   18   88 1    
    40   19   20 am   BACKBONE|DICT|INTERRES
    41   19   89 1    
    42   20   21 2    
    43   20   22 1    
    44   22   23 1    
    45   22   24 1    
    46   22   90 1    
    47   23   91 1    
    48   23   92 1    
    49   23   93 1    
    50   24   25 am   BACKBONE|DICT|INTERRES
    51   24   94 1    
    52   25   26 2    
    53   25   27 1    
    54   27   28 1    
    55   27   29 1    
    56   27   95 1    
    57   28   96 1    
    58   28   97 1    
    59   28   98 1    
    60   29   30 am   BACKBONE|DICT|INTERRES
    61   29   99 1    
    62   30   31 2    
    63   30   32 1    
    64   32   33 1    
    65   32   34 1    
    66   32  100 1    
    67   33  101 1    
    68   33  102 1    
    69   33  103 1    
    70   34   35 am   BACKBONE|DICT|INTERRES
    71   34  104 1    
    72   35   36 2    
    73   37   38 2    
    74   37   39 am   BACKBONE|DICT|INTERRES
    75   39   40 1    
    76   39  105 1    
    77   40   41 1    
    78   40   42 1    
    79   40  106 1    
    80   41  107 1    
    81   41  108 1    
    82   41  109 1    
    83   42   43 2    
    84   42   44 am   BACKBONE|DICT|INTERRES
    85   44   45 1    
    86   44  110 1    
    87   45   46 1    
    88   45   47 1    
    89   45  111 1    
    90   46  112 1    
    91   46  113 1    
    92   46  114 1    
    93   47   48 2    
    94   47   49 am   BACKBONE|DICT|INTERRES
    95   49   50 1    
    96   49  115 1    
    97   50   51 1    
    98   50   52 1    
    99   50  116 1    
   100   51  117 1    
   101   51  118 1    
   102   51  119 1    
   103   52   53 2    
   104   52   54 am   BACKBONE|DICT|INTERRES
   105   54   55 1    
   106   54  120 1    
   107   55   56 1    
   108   55   57 1    
   109   55  121 1    
   110   56  122 1    
   111   56  123 1    
   112   56  124 1    
   113   57   58 2    
   114   57   59 am   BACKBONE|DICT|INTERRES
   115   59   60 1    
   116   59  125 1    
   117   60   61 1    
   118   60   62 1    
   119   60  126 1    
   120   61  127 1    
   121   61  128 1    
   122   61  129 1    
   123   62   63 2    
   124   62   64 am   BACKBONE|DICT|INTERRES
   125   64   65 1    
   126   64  130 1    
   127   65   66 1    
   128   65   69 1    
   129   65  131 1    
   130   66   67 am   BACKBONE|DICT|INTERRES
   131   66   68 2    
   132   67  132 1    
   133   67  133 1    
   134   69   70 1    
   135   69  134 1    
   136   69  135 1    
   137   70   71 1    
   138   71  136 1    
   139   71  137 1    
@<TRIPOS>SUBSTRUCTURE
     1 UNK         1 GROUP             0       ****    0 ROOT    
