@<TRIPOS>MOLECULE
3R136
137   139    1
SMALL
USER_CHARGES


@<TRIPOS>ATOM
      1 CA         29.9555   19.9248   -0.7449 C.3       0 UNK        -0.1979 
      2 C          30.1142   21.1070   -1.6898 C.2       0 UNK         0.4864 
      3 O          30.2084   20.9132   -2.9031 O.2       0 UNK        -0.5359 
      4 N          30.1536   22.3275   -1.1417 N.am      1 UNK        -0.4318 
      5 CA         30.2198   23.5861   -1.8892 C.3       1 UNK         0.0824 
      6 C6         30.7677   24.7520   -1.0227 C.3       12 UNK        -0.0944 
      7 S7         30.0208   24.8974    0.6412 S.3       12 UNK        -0.2672 
      8 C8         31.4527   24.4550    1.6765 C.3       12 UNK         0.0333 
      9 C9         31.1652   24.6452    3.1576 C.ar      12 UNK        -0.0807 
     10 C10        31.7296   25.7171    3.8548 C.ar      12 UNK        -0.0894 
     11 C11        31.4939   25.8821    5.2233 C.ar      12 UNK        -0.0804 
     12 C12        30.6793   24.9650    5.8959 C.ar      12 UNK        -0.0824 
     13 C13        30.0844   23.9053    5.2006 C.ar      12 UNK        -0.0762 
     14 C14        30.3454   23.7409    3.8368 C.ar      12 UNK        -0.0782 
     15 C15        29.1122   22.9674    5.9011 C.3       12 UNK         0.0230 
     16 S16        27.3915   23.2929    5.3849 S.3       12 UNK        -0.2608 
     17 C17        27.1146   24.9677    6.0544 C.3       12 UNK        -0.0989 
     18 CA         27.4439   26.0822    5.0300 C.3       5 UNK         0.0716 
     19 N          26.5916   26.0477    3.8411 N.am      5 UNK        -0.4135 
     20 C          26.7676   26.8283    2.7673 C.2       4 UNK         0.5031 
     21 O          27.6777   27.6595    2.6541 O.2       4 UNK        -0.5229 
     22 CA         25.7364   26.6770    1.6460 C.3       4 UNK         0.0329 
     23 CB         24.3948   27.3303    2.0333 C.3       4 UNK        -0.2001 
     24 N          26.2794   27.3041    0.4469 N.am      4 UNK        -0.4303 
     25 C          25.8800   27.0820   -0.8082 C.2       3 UNK         0.5044 
     26 O          24.9489   26.3293   -1.0986 O.2       3 UNK        -0.5152 
     27 CA         26.6361   27.8218   -1.9300 C.3       3 UNK         0.0319 
     28 CB         27.6134   28.9068   -1.4285 C.3       3 UNK        -0.2001 
     29 N          27.3721   26.8594   -2.7490 N.am      3 UNK        -0.4354 
     30 C          26.8613   26.1661   -3.7764 C.2       2 UNK         0.4964 
     31 O          25.7267   26.3380   -4.2247 O.2       2 UNK        -0.5047 
     32 CA         27.7690   25.1147   -4.4437 C.3       2 UNK         0.0288 
     33 CB         28.2704   25.6256   -5.8055 C.3       2 UNK        -0.2113 
     34 N          28.9250   24.7076   -3.6363 N.am      2 UNK        -0.4145 
     35 C          28.8651   23.9299   -2.5453 C.2       1 UNK         0.5006 
     36 O          27.8112   23.5045   -2.0644 O.2       1 UNK        -0.5103 
     37 C          27.4088   27.4682    5.6968 C.2       5 UNK         0.5055 
     38 O          26.3249   27.9967    5.9499 O.2       5 UNK        -0.5220 
     39 N          28.6048   28.0272    5.9214 N.am      6 UNK        -0.4450 
     40 CA         28.9079   29.3711    6.4312 C.3       6 UNK         0.0367 
     41 CB         28.2428   29.6339    7.7975 C.3       6 UNK        -0.1929 
     42 C          28.6355   30.5181    5.4356 C.2       6 UNK         0.5070 
     43 O          29.1103   31.6278    5.6813 O.2       6 UNK        -0.5237 
     44 N          27.9247   30.2533    4.3302 N.am      7 UNK        -0.4739 
     45 CA         27.6926   31.2116    3.2466 C.3       7 UNK         0.0276 
     46 CB         26.3569   30.8955    2.5544 C.3       7 UNK        -0.1927 
     47 C          28.8416   31.2030    2.2266 C.2       7 UNK         0.5013 
     48 O          29.1429   32.2502    1.6522 O.2       7 UNK        -0.5193 
     49 N          29.4570   30.0297    2.0163 N.am      8 UNK        -0.4253 
     50 CA         30.6307   29.8391    1.1634 C.3       8 UNK         0.0242 
     51 CB         30.9192   28.3372    1.0419 C.3       8 UNK        -0.2000 
     52 C          31.8606   30.5680    1.7260 C.2       8 UNK         0.4948 
     53 O          32.1361   30.4560    2.9223 O.2       8 UNK        -0.5275 
     54 N          32.6043   31.2567    0.8497 N.am      9 UNK        -0.4246 
     55 CA         33.7332   32.1415    1.1775 C.3       9 UNK         0.0261 
     56 CB         34.2493   32.7874   -0.1196 C.3       9 UNK        -0.1959 
     57 C          34.9005   31.5026    1.9577 C.2       9 UNK         0.5033 
     58 O          35.7122   32.2373    2.5226 O.2       9 UNK        -0.5390 
     59 N          34.9688   30.1652    1.9849 N.am      10 UNK        -0.4215 
     60 CA         35.9295   29.3846    2.7643 C.3       10 UNK         0.0240 
     61 CB         35.8125   27.9032    2.3672 C.3       10 UNK        -0.1982 
     62 C          35.7676   29.5387    4.2887 C.2       10 UNK         0.4970 
     63 O          36.7723   29.4592    4.9975 O.2       10 UNK        -0.4916 
     64 N          34.5309   29.7370    4.7672 N.am      11 UNK        -0.4279 
     65 CA         34.2030   29.7950    6.2033 C.3       11 UNK         0.1003 
     66 C          32.8660   30.5084    6.5542 C.2       11 UNK         0.5709 
     67 N          32.0679   30.9729    5.6034 N.am      11 UNK        -0.7358 
     68 O          32.5506   30.6689    7.7306 O.2       11 UNK        -0.4999 
     69 C69        34.3869   28.4319    6.9498 C.3       12 UNK        -0.0954 
     70 S70        33.9161   26.9259    6.0273 S.3       12 UNK        -0.2268 
     71 C71        32.1074   27.0645    5.9596 C.3       12 UNK         0.0203 
     72 H72        29.9016   20.2401    0.2970 H         1 UNK         0.0888 
     73 H73        29.0438   19.3765   -0.9806 H         1 UNK         0.0888 
     74 H74        30.8001   19.2443   -0.8497 H         1 UNK         0.0888 
     75 H75        30.0240   22.4352   -0.1461 H         1 UNK         0.3017 
     76 H76        30.9293   23.4351   -2.7064 H         1 UNK         0.0873 
     77 H77        31.8455   24.6230   -0.9138 H         1 UNK         0.0745 
     78 H78        30.6548   25.7106   -1.5326 H         1 UNK         0.0745 
     79 H79        31.7310   23.4171    1.4879 H         1 UNK         0.0705 
     80 H80        32.3097   25.0631    1.3819 H         1 UNK         0.0705 
     81 H81        32.3686   26.4199    3.3384 H         1 UNK         0.1334 
     82 H82        30.4830   25.0923    6.9520 H         1 UNK         0.1417 
     83 H83        29.8859   22.9239    3.2971 H         1 UNK         0.1562 
     84 H84        29.1929   23.0551    6.9857 H         1 UNK         0.0748 
     85 H85        29.3667   21.9348    5.6576 H         1 UNK         0.0748 
     86 H86        27.7136   25.0819    6.9603 H         1 UNK         0.0940 
     87 H87        26.0738   25.0426    6.3756 H         1 UNK         0.0940 
     88 H88        28.4552   25.9257    4.6572 H         1 UNK         0.0703 
     89 H89        25.8149   25.4042    3.8667 H         1 UNK         0.3081 
     90 H90        25.5905   25.6116    1.4551 H         1 UNK         0.0719 
     91 H91        24.5058   28.3970    2.2288 H         1 UNK         0.0809 
     92 H92        23.6512   27.2124    1.2451 H         1 UNK         0.0809 
     93 H93        23.9793   26.8766    2.9338 H         1 UNK         0.0809 
     94 H94        27.0858   27.8894    0.6269 H         1 UNK         0.2990 
     95 H95        25.8825   28.3191   -2.5445 H         1 UNK         0.0690 
     96 H96        28.0523   29.4505   -2.2654 H         1 UNK         0.0788 
     97 H97        28.4334   28.4859   -0.8483 H         1 UNK         0.0788 
     98 H98        27.1048   29.6444   -0.8057 H         1 UNK         0.0788 
     99 H99        28.3066   26.6316   -2.4458 H         1 UNK         0.2993 
    100 H100       27.1527   24.2297   -4.6184 H         1 UNK         0.0949 
    101 H101       28.8418   24.8604   -6.3315 H         1 UNK         0.0767 
    102 H102       27.4356   25.9028   -6.4510 H         1 UNK         0.0767 
    103 H103       28.9048   26.5065   -5.6978 H         1 UNK         0.0767 
    104 H104       29.8290   25.0150   -3.9666 H         1 UNK         0.3013 
    105 H105       29.4146   27.4995    5.6273 H         1 UNK         0.3121 
    106 H106       29.9847   29.3734    6.6001 H         1 UNK         0.0774 
    107 H107       28.6142   30.5615    8.2350 H         1 UNK         0.0815 
    108 H108       27.1602   29.7309    7.7149 H         1 UNK         0.0815 
    109 H109       28.4581   28.8342    8.5059 H         1 UNK         0.0815 
    110 H110       27.5825   29.3120    4.1846 H         1 UNK         0.2987 
    111 H111       27.6251   32.2182    3.6658 H         1 UNK         0.0949 
    112 H112       26.3811   29.9323    2.0462 H         1 UNK         0.0806 
    113 H113       25.5323   30.8803    3.2672 H         1 UNK         0.0806 
    114 H114       26.1226   31.6504    1.8027 H         1 UNK         0.0806 
    115 H115       29.1079   29.2124    2.5032 H         1 UNK         0.3010 
    116 H116       30.3955   30.2350    0.1733 H         1 UNK         0.0829 
    117 H117       30.0642   27.8039    0.6310 H         1 UNK         0.0813 
    118 H118       31.7693   28.1447    0.3865 H         1 UNK         0.0813 
    119 H119       31.1429   27.8956    2.0123 H         1 UNK         0.0813 
    120 H120       32.3150   31.2589   -0.1182 H         1 UNK         0.3038 
    121 H121       33.3357   32.9340    1.8150 H         1 UNK         0.0769 
    122 H122       33.4657   33.3552   -0.6217 H         1 UNK         0.0811 
    123 H123       34.6262   32.0402   -0.8192 H         1 UNK         0.0811 
    124 H124       35.0654   33.4821    0.0850 H         1 UNK         0.0811 
    125 H125       34.2533   29.6510    1.4934 H         1 UNK         0.3204 
    126 H126       36.9310   29.7326    2.5028 H         1 UNK         0.0748 
    127 H127       36.0054   27.7589    1.3040 H         1 UNK         0.0771 
    128 H128       36.5369   27.2957    2.9119 H         1 UNK         0.0771 
    129 H129       34.8223   27.5023    2.5888 H         1 UNK         0.0771 
    130 H130       33.7540   29.8237    4.1232 H         1 UNK         0.2980 
    131 H131       34.9377   30.4770    6.6357 H         1 UNK         0.0545 
    132 H132       32.2437   30.8296    4.6110 H         1 UNK         0.3459 
    133 H133       31.2104   31.4369    5.8720 H         1 UNK         0.3459 
    134 H134       33.8809   28.4225    7.9167 H         1 UNK         0.0616 
    135 H135       35.4440   28.3141    7.1916 H         1 UNK         0.0616 
    136 H136       31.7132   27.1461    6.9738 H         1 UNK         0.0634 
    137 H137       31.8369   27.9822    5.4366 H         1 UNK         0.0634 
@<TRIPOS>BOND
     1    1    2 1    
     2    1   72 1    
     3    1   73 1    
     4    1   74 1    
     5    2    3 2    
     6    2    4 am   BACKBONE|DICT|INTERRES
     7    4    5 1    
     8    4   75 1    
     9    5    6 1    
    10    5   35 1    
    11    5   76 1    
    12    6    7 1    
    13    6   77 1    
    14    6   78 1    
    15    7    8 1    
    16    8    9 1    
    17    8   79 1    
    18    8   80 1    
    19    9   10 ar   
    20    9   14 ar   
    21   10   11 ar   
    22   10   81 1    
    23   11   12 ar   
    24   11   71 1    
    25   12   13 ar   
    26   12   82 1    
    27   13   14 ar   
    28   13   15 1    
    29   14   83 1    
    30   15   16 1    
    31   15   84 1    
    32   15   85 1    
    33   16   17 1    
    34   17   18 1    
    35   17   86 1    
    36   17   87 1    
    37   18   19 1    
    38   18   37 1    
    39   18   88 1    
    40   19   20 am   BACKBONE|DICT|INTERRES
    41   19   89 1    
    42   20   21 2    
    43   20   22 1    
    44   22   23 1    
    45   22   24 1    
    46   22   90 1    
    47   23   91 1    
    48   23   92 1    
    49   23   93 1    
    50   24   25 am   BACKBONE|DICT|INTERRES
    51   24   94 1    
    52   25   26 2    
    53   25   27 1    
    54   27   28 1    
    55   27   29 1    
    56   27   95 1    
    57   28   96 1    
    58   28   97 1    
    59   28   98 1    
    60   29   30 am   BACKBONE|DICT|INTERRES
    61   29   99 1    
    62   30   31 2    
    63   30   32 1    
    64   32   33 1    
    65   32   34 1    
    66   32  100 1    
    67   33  101 1    
    68   33  102 1    
    69   33  103 1    
    70   34   35 am   BACKBONE|DICT|INTERRES
    71   34  104 1    
    72   35   36 2    
    73   37   38 2    
    74   37   39 am   BACKBONE|DICT|INTERRES
    75   39   40 1    
    76   39  105 1    
    77   40   41 1    
    78   40   42 1    
    79   40  106 1    
    80   41  107 1    
    81   41  108 1    
    82   41  109 1    
    83   42   43 2    
    84   42   44 am   BACKBONE|DICT|INTERRES
    85   44   45 1    
    86   44  110 1    
    87   45   46 1    
    88   45   47 1    
    89   45  111 1    
    90   46  112 1    
    91   46  113 1    
    92   46  114 1    
    93   47   48 2    
    94   47   49 am   BACKBONE|DICT|INTERRES
    95   49   50 1    
    96   49  115 1    
    97   50   51 1    
    98   50   52 1    
    99   50  116 1    
   100   51  117 1    
   101   51  118 1    
   102   51  119 1    
   103   52   53 2    
   104   52   54 am   BACKBONE|DICT|INTERRES
   105   54   55 1    
   106   54  120 1    
   107   55   56 1    
   108   55   57 1    
   109   55  121 1    
   110   56  122 1    
   111   56  123 1    
   112   56  124 1    
   113   57   58 2    
   114   57   59 am   BACKBONE|DICT|INTERRES
   115   59   60 1    
   116   59  125 1    
   117   60   61 1    
   118   60   62 1    
   119   60  126 1    
   120   61  127 1    
   121   61  128 1    
   122   61  129 1    
   123   62   63 2    
   124   62   64 am   BACKBONE|DICT|INTERRES
   125   64   65 1    
   126   64  130 1    
   127   65   66 1    
   128   65   69 1    
   129   65  131 1    
   130   66   67 am   BACKBONE|DICT|INTERRES
   131   66   68 2    
   132   67  132 1    
   133   67  133 1    
   134   69   70 1    
   135   69  134 1    
   136   69  135 1    
   137   70   71 1    
   138   71  136 1    
   139   71  137 1    
@<TRIPOS>SUBSTRUCTURE
     1 UNK         1 GROUP             0       ****    0 ROOT    
