@<TRIPOS>MOLECULE
3R136
137   139    1
SMALL
USER_CHARGES


@<TRIPOS>ATOM
      1 CA         33.9500   24.5927    0.8950 C.3       0 UNK        -0.1979 
      2 C          32.5163   24.5178    0.4013 C.2       0 UNK         0.4864 
      3 O          32.2947   24.1738   -0.7598 O.2       0 UNK        -0.5359 
      4 N          31.5509   24.8205    1.2860 N.am      1 UNK        -0.4318 
      5 CA         30.1018   24.7176    1.0601 C.3       1 UNK         0.0824 
      6 C6         29.6262   23.2394    0.9040 C.3       12 UNK        -0.0944 
      7 S7         29.4191   22.3078    2.4611 S.3       12 UNK        -0.2672 
      8 C8         31.0555   22.3556    3.2813 C.3       12 UNK         0.0333 
      9 C9         31.2309   23.4406    4.3522 C.ar      12 UNK        -0.0807 
     10 C10        32.4967   23.6237    4.9238 C.ar      12 UNK        -0.0894 
     11 C11        32.6894   24.5409    5.9641 C.ar      12 UNK        -0.0804 
     12 C12        31.6095   25.3081    6.4103 C.ar      12 UNK        -0.0824 
     13 C13        30.3402   25.1440    5.8508 C.ar      12 UNK        -0.0762 
     14 C14        30.1580   24.2051    4.8333 C.ar      12 UNK        -0.0782 
     15 C15        29.1563   25.9358    6.3908 C.3       12 UNK         0.0230 
     16 S16        28.7443   27.3605    5.3371 S.3       12 UNK        -0.2608 
     17 C17        27.4271   26.6835    4.2728 C.3       12 UNK        -0.0989 
     18 CA         27.2569   27.4644    2.9372 C.3       5 UNK         0.0716 
     19 N          26.8652   26.6153    1.8074 N.am      5 UNK        -0.4135 
     20 C          25.8622   25.7260    1.7566 C.2       4 UNK         0.5031 
     21 O          25.1269   25.4640    2.7089 O.2       4 UNK        -0.5229 
     22 CA         25.6523   25.0159    0.4013 C.3       4 UNK         0.0329 
     23 CB         24.2364   24.4202    0.2464 C.3       4 UNK        -0.2001 
     24 N          26.0010   25.8621   -0.7496 N.am      4 UNK        -0.4303 
     25 C          25.4300   27.0299   -1.0852 C.2       3 UNK         0.5044 
     26 O          24.4789   27.5177   -0.4768 O.2       3 UNK        -0.5152 
     27 CA         26.0936   27.8142   -2.2368 C.3       3 UNK         0.0319 
     28 CB         25.5493   29.2512   -2.3753 C.3       3 UNK        -0.2001 
     29 N          27.5594   27.8205   -2.1313 N.am      3 UNK        -0.4354 
     30 C          28.2874   28.2338   -1.0833 C.2       2 UNK         0.4964 
     31 O          27.8187   28.7714   -0.0763 O.2       2 UNK        -0.5047 
     32 CA         29.7858   27.8966   -1.1246 C.3       2 UNK         0.0288 
     33 CB         30.6541   29.1491   -0.9204 C.3       2 UNK        -0.2113 
     34 N          30.1131   26.8922   -0.1071 N.am      2 UNK        -0.4145 
     35 C          29.6460   25.6319   -0.1046 C.2       1 UNK         0.5006 
     36 O          28.8811   25.1992   -0.9706 O.2       1 UNK        -0.5103 
     37 C          26.3773   28.7311    3.0721 C.2       5 UNK         0.5055 
     38 O          26.5646   29.4924    4.0225 O.2       5 UNK        -0.5220 
     39 N          25.4505   28.9745    2.1296 N.am      6 UNK        -0.4450 
     40 CA         24.6169   30.1794    2.1123 C.3       6 UNK         0.0367 
     41 CB         23.3855   29.9605    1.2197 C.3       6 UNK        -0.1929 
     42 C          25.3869   31.4312    1.6607 C.2       6 UNK         0.5070 
     43 O          25.0239   32.5305    2.0811 O.2       6 UNK        -0.5237 
     44 N          26.4182   31.2617    0.8185 N.am      7 UNK        -0.4739 
     45 CA         27.2612   32.3638    0.3524 C.3       7 UNK         0.0276 
     46 CB         27.8559   32.0461   -1.0289 C.3       7 UNK        -0.1927 
     47 C          28.3632   32.6862    1.3688 C.2       7 UNK         0.5013 
     48 O          28.5318   33.8563    1.7154 O.2       7 UNK        -0.5193 
     49 N          29.0806   31.6555    1.8368 N.am      8 UNK        -0.4253 
     50 CA         30.1702   31.7742    2.8029 C.3       8 UNK         0.0242 
     51 CB         31.3958   32.4548    2.1554 C.3       8 UNK        -0.2000 
     52 C          30.5768   30.3908    3.3146 C.2       8 UNK         0.4948 
     53 O          30.4893   29.4070    2.5746 O.2       8 UNK        -0.5275 
     54 N          31.1265   30.3627    4.5342 N.am      9 UNK        -0.4246 
     55 CA         31.8736   29.2313    5.0827 C.3       9 UNK         0.0261 
     56 CB         31.7955   29.2644    6.6205 C.3       9 UNK        -0.1959 
     57 C          33.3182   29.2909    4.5608 C.2       9 UNK         0.5033 
     58 O          34.2315   29.6552    5.3035 O.2       9 UNK        -0.5390 
     59 N          33.4804   28.9992    3.2631 N.am      10 UNK        -0.4215 
     60 CA         34.7607   29.0379    2.5507 C.3       10 UNK         0.0240 
     61 CB         34.5053   28.9242    1.0384 C.3       10 UNK        -0.1982 
     62 C          35.7476   27.9584    3.0283 C.2       10 UNK         0.4970 
     63 O          36.9418   28.2371    3.1357 O.2       10 UNK        -0.4916 
     64 N          35.2173   26.7601    3.3096 N.am      11 UNK        -0.4279 
     65 CA         35.9098   25.5975    3.8978 C.3       11 UNK         0.1003 
     66 C          37.0913   25.0045    3.0681 C.2       11 UNK         0.5709 
     67 N          37.2718   25.3739    1.8061 N.am      11 UNK        -0.7358 
     68 O          37.8337   24.1586    3.5612 O.2       11 UNK        -0.4999 
     69 C69        36.2739   25.8171    5.3917 C.3       12 UNK        -0.0954 
     70 S70        34.8277   26.2675    6.4097 S.3       12 UNK        -0.2268 
     71 C71        34.0350   24.6496    6.6725 C.3       12 UNK         0.0203 
     72 H72        34.5645   23.8452    0.3935 H         1 UNK         0.0888 
     73 H73        34.3727   25.5741    0.6871 H         1 UNK         0.0888 
     74 H74        34.0018   24.3976    1.9636 H         1 UNK         0.0888 
     75 H75        31.8122   25.0913    2.2233 H         1 UNK         0.3017 
     76 H76        29.6176   25.1299    1.9468 H         1 UNK         0.0873 
     77 H77        30.2848   22.6784    0.2396 H         1 UNK         0.0745 
     78 H78        28.6426   23.1915    0.4350 H         1 UNK         0.0745 
     79 H79        31.1994   21.3906    3.7689 H         1 UNK         0.0705 
     80 H80        31.8422   22.4264    2.5302 H         1 UNK         0.0705 
     81 H81        33.3254   23.0147    4.5885 H         1 UNK         0.1334 
     82 H82        31.7539   26.0107    7.2197 H         1 UNK         0.1417 
     83 H83        29.1636   24.0568    4.4434 H         1 UNK         0.1562 
     84 H84        29.3819   26.3063    7.3920 H         1 UNK         0.0748 
     85 H85        28.2866   25.2865    6.5028 H         1 UNK         0.0748 
     86 H86        26.4914   26.6513    4.8344 H         1 UNK         0.0940 
     87 H87        27.6749   25.6451    4.0600 H         1 UNK         0.0940 
     88 H88        28.2402   27.8380    2.6468 H         1 UNK         0.0703 
     89 H89        27.3413   26.8334    0.9425 H         1 UNK         0.3081 
     90 H90        26.3580   24.1844    0.3885 H         1 UNK         0.0719 
     91 H91        24.0380   23.6784    1.0210 H         1 UNK         0.0809 
     92 H92        23.4625   25.1842    0.3255 H         1 UNK         0.0809 
     93 H93        24.1188   23.9211   -0.7153 H         1 UNK         0.0809 
     94 H94        26.8278   25.5711   -1.2621 H         1 UNK         0.2990 
     95 H95        25.8485   27.2768   -3.1540 H         1 UNK         0.0690 
     96 H96        26.0333   29.7829   -3.1942 H         1 UNK         0.0788 
     97 H97        25.6981   29.8294   -1.4647 H         1 UNK         0.0788 
     98 H98        24.4782   29.2441   -2.5809 H         1 UNK         0.0788 
     99 H99        28.0451   27.3595   -2.8890 H         1 UNK         0.2993 
    100 H100       30.0328   27.4734   -2.1007 H         1 UNK         0.0949 
    101 H101       31.7158   28.9018   -0.9159 H         1 UNK         0.0767 
    102 H102       30.4943   29.8665   -1.7260 H         1 UNK         0.0767 
    103 H103       30.4253   29.6575    0.0151 H         1 UNK         0.0767 
    104 H104       30.7022   27.1990    0.6532 H         1 UNK         0.3013 
    105 H105       25.3302   28.3279    1.3587 H         1 UNK         0.3121 
    106 H106       24.2597   30.3594    3.1288 H         1 UNK         0.0774 
    107 H107       22.6849   30.7904    1.3188 H         1 UNK         0.0815 
    108 H108       23.6559   29.8945    0.1657 H         1 UNK         0.0815 
    109 H109       22.8510   29.0495    1.4892 H         1 UNK         0.0815 
    110 H110       26.6886   30.3233    0.5395 H         1 UNK         0.2987 
    111 H111       26.6445   33.2587    0.2386 H         1 UNK         0.0949 
    112 H112       28.5118   31.1785   -1.0021 H         1 UNK         0.0806 
    113 H113       27.0749   31.8575   -1.7649 H         1 UNK         0.0806 
    114 H114       28.4482   32.8852   -1.3962 H         1 UNK         0.0806 
    115 H115       28.8793   30.7116    1.5288 H         1 UNK         0.3010 
    116 H116       29.8201   32.3709    3.6480 H         1 UNK         0.0829 
    117 H117       31.1802   33.4796    1.8541 H         1 UNK         0.0813 
    118 H118       32.2363   32.5001    2.8493 H         1 UNK         0.0813 
    119 H119       31.7335   31.9113    1.2718 H         1 UNK         0.0813 
    120 H120       31.1910   31.2262    5.0542 H         1 UNK         0.3038 
    121 H121       31.4359   28.2908    4.7422 H         1 UNK         0.0769 
    122 H122       32.3691   28.4447    7.0549 H         1 UNK         0.0811 
    123 H123       30.7670   29.1590    6.9658 H         1 UNK         0.0811 
    124 H124       32.1940   30.1934    7.0298 H         1 UNK         0.0811 
    125 H125       32.6478   28.8010    2.7211 H         1 UNK         0.3204 
    126 H126       35.2206   30.0095    2.7446 H         1 UNK         0.0748 
    127 H127       35.4427   28.9435    0.4806 H         1 UNK         0.0771 
    128 H128       33.9881   28.0003    0.7788 H         1 UNK         0.0771 
    129 H129       33.8999   29.7564    0.6777 H         1 UNK         0.0771 
    130 H130       34.2202   26.6601    3.2084 H         1 UNK         0.2980 
    131 H131       35.1702   24.7983    3.8855 H         1 UNK         0.0545 
    132 H132       38.0310   24.9703    1.2807 H         1 UNK         0.3459 
    133 H133       36.6956   26.0879    1.3937 H         1 UNK         0.3459 
    134 H134       37.0158   26.6115    5.4855 H         1 UNK         0.0616 
    135 H135       36.7316   24.9258    5.8243 H         1 UNK         0.0616 
    136 H136       33.8802   24.5129    7.7436 H         1 UNK         0.0634 
    137 H137       34.7015   23.8439    6.3620 H         1 UNK         0.0634 
@<TRIPOS>BOND
     1    1    2 1    
     2    1   72 1    
     3    1   73 1    
     4    1   74 1    
     5    2    3 2    
     6    2    4 am   BACKBONE|DICT|INTERRES
     7    4    5 1    
     8    4   75 1    
     9    5    6 1    
    10    5   35 1    
    11    5   76 1    
    12    6    7 1    
    13    6   77 1    
    14    6   78 1    
    15    7    8 1    
    16    8    9 1    
    17    8   79 1    
    18    8   80 1    
    19    9   10 ar   
    20    9   14 ar   
    21   10   11 ar   
    22   10   81 1    
    23   11   12 ar   
    24   11   71 1    
    25   12   13 ar   
    26   12   82 1    
    27   13   14 ar   
    28   13   15 1    
    29   14   83 1    
    30   15   16 1    
    31   15   84 1    
    32   15   85 1    
    33   16   17 1    
    34   17   18 1    
    35   17   86 1    
    36   17   87 1    
    37   18   19 1    
    38   18   37 1    
    39   18   88 1    
    40   19   20 am   BACKBONE|DICT|INTERRES
    41   19   89 1    
    42   20   21 2    
    43   20   22 1    
    44   22   23 1    
    45   22   24 1    
    46   22   90 1    
    47   23   91 1    
    48   23   92 1    
    49   23   93 1    
    50   24   25 am   BACKBONE|DICT|INTERRES
    51   24   94 1    
    52   25   26 2    
    53   25   27 1    
    54   27   28 1    
    55   27   29 1    
    56   27   95 1    
    57   28   96 1    
    58   28   97 1    
    59   28   98 1    
    60   29   30 am   BACKBONE|DICT|INTERRES
    61   29   99 1    
    62   30   31 2    
    63   30   32 1    
    64   32   33 1    
    65   32   34 1    
    66   32  100 1    
    67   33  101 1    
    68   33  102 1    
    69   33  103 1    
    70   34   35 am   BACKBONE|DICT|INTERRES
    71   34  104 1    
    72   35   36 2    
    73   37   38 2    
    74   37   39 am   BACKBONE|DICT|INTERRES
    75   39   40 1    
    76   39  105 1    
    77   40   41 1    
    78   40   42 1    
    79   40  106 1    
    80   41  107 1    
    81   41  108 1    
    82   41  109 1    
    83   42   43 2    
    84   42   44 am   BACKBONE|DICT|INTERRES
    85   44   45 1    
    86   44  110 1    
    87   45   46 1    
    88   45   47 1    
    89   45  111 1    
    90   46  112 1    
    91   46  113 1    
    92   46  114 1    
    93   47   48 2    
    94   47   49 am   BACKBONE|DICT|INTERRES
    95   49   50 1    
    96   49  115 1    
    97   50   51 1    
    98   50   52 1    
    99   50  116 1    
   100   51  117 1    
   101   51  118 1    
   102   51  119 1    
   103   52   53 2    
   104   52   54 am   BACKBONE|DICT|INTERRES
   105   54   55 1    
   106   54  120 1    
   107   55   56 1    
   108   55   57 1    
   109   55  121 1    
   110   56  122 1    
   111   56  123 1    
   112   56  124 1    
   113   57   58 2    
   114   57   59 am   BACKBONE|DICT|INTERRES
   115   59   60 1    
   116   59  125 1    
   117   60   61 1    
   118   60   62 1    
   119   60  126 1    
   120   61  127 1    
   121   61  128 1    
   122   61  129 1    
   123   62   63 2    
   124   62   64 am   BACKBONE|DICT|INTERRES
   125   64   65 1    
   126   64  130 1    
   127   65   66 1    
   128   65   69 1    
   129   65  131 1    
   130   66   67 am   BACKBONE|DICT|INTERRES
   131   66   68 2    
   132   67  132 1    
   133   67  133 1    
   134   69   70 1    
   135   69  134 1    
   136   69  135 1    
   137   70   71 1    
   138   71  136 1    
   139   71  137 1    
@<TRIPOS>SUBSTRUCTURE
     1 UNK         1 GROUP             0       ****    0 ROOT    
