@<TRIPOS>MOLECULE
3R136
137   139    1
SMALL
USER_CHARGES


@<TRIPOS>ATOM
      1 CA         31.5847   24.8216   -5.4189 C.3       0 UNK        -0.1979 
      2 C          31.1996   24.5582   -3.9705 C.2       0 UNK         0.4864 
      3 O          31.6699   23.5822   -3.3844 O.2       0 UNK        -0.5359 
      4 N          30.3526   25.4237   -3.3951 N.am      1 UNK        -0.4318 
      5 CA         29.8123   25.3390   -2.0347 C.3       1 UNK         0.0824 
      6 C6         30.9069   25.4772   -0.9363 C.3       12 UNK        -0.0944 
      7 S7         30.2089   26.0487    0.6466 S.3       12 UNK        -0.2672 
      8 C8         30.8072   24.7847    1.8071 C.3       12 UNK         0.0333 
      9 C9         30.2201   25.0270    3.1864 C.ar      12 UNK        -0.0807 
     10 C10        30.9419   25.7247    4.1589 C.ar      12 UNK        -0.0894 
     11 C11        30.3716   25.9910    5.4075 C.ar      12 UNK        -0.0804 
     12 C12        29.0704   25.5551    5.6784 C.ar      12 UNK        -0.0824 
     13 C13        28.3443   24.8437    4.7180 C.ar      12 UNK        -0.0762 
     14 C14        28.9332   24.5715    3.4799 C.ar      12 UNK        -0.0782 
     15 C15        26.9311   24.3619    5.0278 C.3       12 UNK         0.0230 
     16 S16        25.7280   24.7571    3.7139 S.3       12 UNK        -0.2608 
     17 C17        25.8229   26.5783    3.6428 C.3       12 UNK        -0.0989 
     18 CA         26.4799   27.1001    2.3378 C.3       5 UNK         0.0716 
     19 N          25.7828   26.6096    1.1448 N.am      5 UNK        -0.4135 
     20 C          26.1372   26.8332   -0.1269 C.2       4 UNK         0.5031 
     21 O          27.1414   27.4615   -0.4653 O.2       4 UNK        -0.5229 
     22 CA         25.2173   26.2221   -1.1975 C.3       4 UNK         0.0329 
     23 CB         25.5588   26.7002   -2.6217 C.3       4 UNK        -0.2001 
     24 N          25.2807   24.7607   -1.1512 N.am      4 UNK        -0.4303 
     25 C          24.5346   23.9903   -0.3460 C.2       3 UNK         0.5044 
     26 O          23.7000   24.4447    0.4379 O.2       3 UNK        -0.5152 
     27 CA         24.7424   22.4654   -0.4160 C.3       3 UNK         0.0319 
     28 CB         23.6955   21.8237   -1.3406 C.3       3 UNK        -0.2001 
     29 N          26.0815   22.0823   -0.8684 N.am      3 UNK        -0.4354 
     30 C          27.1934   22.2064   -0.1319 C.2       2 UNK         0.4964 
     31 O          27.1996   22.5880    1.0371 O.2       2 UNK        -0.5047 
     32 CA         28.5345   21.8749   -0.8104 C.3       2 UNK         0.0288 
     33 CB         28.4084   20.9725   -2.0601 C.3       2 UNK        -0.2113 
     34 N          29.2800   23.0998   -1.1205 N.am      2 UNK        -0.4145 
     35 C          28.8806   24.1132   -1.9048 C.2       1 UNK         0.5006 
     36 O          27.8156   24.1143   -2.5276 O.2       1 UNK        -0.5103 
     37 C          26.5236   28.6408    2.3576 C.2       5 UNK         0.5055 
     38 O          25.4719   29.2735    2.2264 O.2       5 UNK        -0.5220 
     39 N          27.7154   29.2149    2.5493 N.am      6 UNK        -0.4450 
     40 CA         27.9417   30.6527    2.6531 C.3       6 UNK         0.0367 
     41 CB         27.9503   31.2965    1.2534 C.3       6 UNK        -0.1929 
     42 C          29.2798   30.8831    3.3557 C.2       6 UNK         0.5070 
     43 O          30.2137   30.1062    3.1478 O.2       6 UNK        -0.5237 
     44 N          29.3721   31.9785    4.1228 N.am      7 UNK        -0.4739 
     45 CA         30.5695   32.3880    4.8718 C.3       7 UNK         0.0276 
     46 CB         30.2362   33.6137    5.7363 C.3       7 UNK        -0.1927 
     47 C          31.8017   32.6688    3.9920 C.2       7 UNK         0.5013 
     48 O          32.9278   32.5571    4.4782 O.2       7 UNK        -0.5193 
     49 N          31.5703   32.9629    2.7034 N.am      8 UNK        -0.4253 
     50 CA         32.5776   33.1043    1.6464 C.3       8 UNK         0.0242 
     51 CB         31.8732   33.4927    0.3361 C.3       8 UNK        -0.2000 
     52 C          33.4580   31.8557    1.4330 C.2       8 UNK         0.4948 
     53 O          34.5535   31.9863    0.8866 O.2       8 UNK        -0.5275 
     54 N          32.9994   30.6840    1.8999 N.am      9 UNK        -0.4246 
     55 CA         33.7761   29.4437    1.9717 C.3       9 UNK         0.0261 
     56 CB         32.8009   28.2673    2.1301 C.3       9 UNK        -0.1959 
     57 C          34.8347   29.4306    3.0974 C.2       9 UNK         0.5033 
     58 O          35.5505   28.4351    3.2163 O.2       9 UNK        -0.5390 
     59 N          34.9162   30.5075    3.8971 N.am      10 UNK        -0.4215 
     60 CA         35.7928   30.7095    5.0558 C.3       10 UNK         0.0240 
     61 CB         37.2864   30.6367    4.6684 C.3       10 UNK        -0.1982 
     62 C          35.4084   29.7843    6.2222 C.2       10 UNK         0.4970 
     63 O          36.2629   29.0902    6.7769 O.2       10 UNK        -0.4916 
     64 N          34.1125   29.7928    6.5581 N.am      11 UNK        -0.4279 
     65 CA         33.5202   29.0463    7.6760 C.3       11 UNK         0.1003 
     66 C          34.0755   29.4885    9.0585 C.2       11 UNK         0.5709 
     67 N          34.2160   28.5618    9.9968 N.am      11 UNK        -0.7358 
     68 O          34.3370   30.6661    9.2994 O.2       11 UNK        -0.4999 
     69 C69        31.9723   29.1390    7.6640 C.3       12 UNK        -0.0954 
     70 S70        31.2234   28.5223    6.1209 S.3       12 UNK        -0.2268 
     71 C71        31.1643   26.7391    6.4678 C.3       12 UNK         0.0203 
     72 H72        31.2800   23.9841   -6.0458 H         1 UNK         0.0888 
     73 H73        31.1162   25.7251   -5.8087 H         1 UNK         0.0888 
     74 H74        32.6649   24.9364   -5.5047 H         1 UNK         0.0888 
     75 H75        29.9865   26.1857   -3.9489 H         1 UNK         0.3017 
     76 H76        29.1572   26.2078   -1.9462 H         1 UNK         0.0873 
     77 H77        31.4875   24.5626   -0.8077 H         1 UNK         0.0745 
     78 H78        31.6308   26.2348   -1.2406 H         1 UNK         0.0745 
     79 H79        30.5237   23.7917    1.4561 H         1 UNK         0.0705 
     80 H80        31.8976   24.8088    1.8424 H         1 UNK         0.0705 
     81 H81        31.9422   26.0728    3.9429 H         1 UNK         0.1334 
     82 H82        28.6260   25.7651    6.6419 H         1 UNK         0.1417 
     83 H83        28.3741   24.0312    2.7292 H         1 UNK         0.1562 
     84 H84        26.5725   24.7864    5.9669 H         1 UNK         0.0748 
     85 H85        26.9536   23.2804    5.1670 H         1 UNK         0.0748 
     86 H86        26.3661   26.9450    4.5161 H         1 UNK         0.0940 
     87 H87        24.8065   26.9657    3.7404 H         1 UNK         0.0940 
     88 H88        27.5040   26.7255    2.2870 H         1 UNK         0.0703 
     89 H89        24.9609   26.0428    1.3137 H         1 UNK         0.3081 
     90 H90        24.1983   26.5506   -0.9811 H         1 UNK         0.0719 
     91 H91        26.5738   26.4286   -2.9120 H         1 UNK         0.0809 
     92 H92        24.8756   26.2751   -3.3570 H         1 UNK         0.0809 
     93 H93        25.4803   27.7856   -2.6957 H         1 UNK         0.0809 
     94 H94        26.0056   24.3281   -1.7164 H         1 UNK         0.2990 
     95 H95        24.5954   22.0693    0.5913 H         1 UNK         0.0690 
     96 H96        23.7803   20.7368   -1.3425 H         1 UNK         0.0788 
     97 H97        23.7968   22.1717   -2.3694 H         1 UNK         0.0788 
     98 H98        22.6840   22.0675   -1.0122 H         1 UNK         0.0788 
     99 H99        26.1749   21.7832   -1.8286 H         1 UNK         0.2993 
    100 H100       29.1223   21.3296   -0.0701 H         1 UNK         0.0949 
    101 H101       27.8847   21.4608   -2.8823 H         1 UNK         0.0767 
    102 H102       29.3931   20.6849   -2.4294 H         1 UNK         0.0767 
    103 H103       27.8739   20.0506   -1.8264 H         1 UNK         0.0767 
    104 H104       30.1733   23.1941   -0.6607 H         1 UNK         0.3013 
    105 H105       28.5503   28.6520    2.6680 H         1 UNK         0.3121 
    106 H106       27.1468   31.0963    3.2568 H         1 UNK         0.0774 
    107 H107       28.7261   30.8649    0.6192 H         1 UNK         0.0815 
    108 H108       28.1348   32.3697    1.3143 H         1 UNK         0.0815 
    109 H109       26.9946   31.1631    0.7464 H         1 UNK         0.0815 
    110 H110       28.5586   32.5699    4.2218 H         1 UNK         0.2987 
    111 H111       30.8366   31.5633    5.5359 H         1 UNK         0.0949 
    112 H112       29.9328   34.4671    5.1285 H         1 UNK         0.0806 
    113 H113       29.4320   33.3972    6.4397 H         1 UNK         0.0806 
    114 H114       31.1017   33.9236    6.3241 H         1 UNK         0.0806 
    115 H115       30.6057   33.0274    2.4139 H         1 UNK         0.3010 
    116 H116       33.2427   33.9200    1.9372 H         1 UNK         0.0829 
    117 H117       32.5960   33.6356   -0.4687 H         1 UNK         0.0813 
    118 H118       31.1723   32.7225    0.0113 H         1 UNK         0.0813 
    119 H119       31.3222   34.4275    0.4419 H         1 UNK         0.0813 
    120 H120       32.0756   30.6514    2.3208 H         1 UNK         0.3038 
    121 H121       34.3093   29.3183    1.0271 H         1 UNK         0.0769 
    122 H122       32.0620   28.2590    1.3294 H         1 UNK         0.0811 
    123 H123       32.2637   28.3181    3.0778 H         1 UNK         0.0811 
    124 H124       33.3238   27.3108    2.0986 H         1 UNK         0.0811 
    125 H125       34.2389   31.2510    3.7538 H         1 UNK         0.3204 
    126 H126       35.6009   31.7263    5.4023 H         1 UNK         0.0748 
    127 H127       37.9187   30.9239    5.5093 H         1 UNK         0.0771 
    128 H128       37.5852   29.6314    4.3704 H         1 UNK         0.0771 
    129 H129       37.5152   31.3130    3.8448 H         1 UNK         0.0771 
    130 H130       33.4848   30.3984    6.0508 H         1 UNK         0.2980 
    131 H131       33.7968   28.0001    7.5322 H         1 UNK         0.0545 
    132 H132       33.9935   27.5955    9.8151 H         1 UNK         0.3459 
    133 H133       34.5599   28.8336   10.9045 H         1 UNK         0.3459 
    134 H134       31.6550   30.1752    7.7959 H         1 UNK         0.0616 
    135 H135       31.5445   28.5857    8.5021 H         1 UNK         0.0616 
    136 H136       32.1811   26.3462    6.5110 H         1 UNK         0.0634 
    137 H137       30.7257   26.5746    7.4531 H         1 UNK         0.0634 
@<TRIPOS>BOND
     1    1    2 1    
     2    1   72 1    
     3    1   73 1    
     4    1   74 1    
     5    2    3 2    
     6    2    4 am   BACKBONE|DICT|INTERRES
     7    4    5 1    
     8    4   75 1    
     9    5    6 1    
    10    5   35 1    
    11    5   76 1    
    12    6    7 1    
    13    6   77 1    
    14    6   78 1    
    15    7    8 1    
    16    8    9 1    
    17    8   79 1    
    18    8   80 1    
    19    9   10 ar   
    20    9   14 ar   
    21   10   11 ar   
    22   10   81 1    
    23   11   12 ar   
    24   11   71 1    
    25   12   13 ar   
    26   12   82 1    
    27   13   14 ar   
    28   13   15 1    
    29   14   83 1    
    30   15   16 1    
    31   15   84 1    
    32   15   85 1    
    33   16   17 1    
    34   17   18 1    
    35   17   86 1    
    36   17   87 1    
    37   18   19 1    
    38   18   37 1    
    39   18   88 1    
    40   19   20 am   BACKBONE|DICT|INTERRES
    41   19   89 1    
    42   20   21 2    
    43   20   22 1    
    44   22   23 1    
    45   22   24 1    
    46   22   90 1    
    47   23   91 1    
    48   23   92 1    
    49   23   93 1    
    50   24   25 am   BACKBONE|DICT|INTERRES
    51   24   94 1    
    52   25   26 2    
    53   25   27 1    
    54   27   28 1    
    55   27   29 1    
    56   27   95 1    
    57   28   96 1    
    58   28   97 1    
    59   28   98 1    
    60   29   30 am   BACKBONE|DICT|INTERRES
    61   29   99 1    
    62   30   31 2    
    63   30   32 1    
    64   32   33 1    
    65   32   34 1    
    66   32  100 1    
    67   33  101 1    
    68   33  102 1    
    69   33  103 1    
    70   34   35 am   BACKBONE|DICT|INTERRES
    71   34  104 1    
    72   35   36 2    
    73   37   38 2    
    74   37   39 am   BACKBONE|DICT|INTERRES
    75   39   40 1    
    76   39  105 1    
    77   40   41 1    
    78   40   42 1    
    79   40  106 1    
    80   41  107 1    
    81   41  108 1    
    82   41  109 1    
    83   42   43 2    
    84   42   44 am   BACKBONE|DICT|INTERRES
    85   44   45 1    
    86   44  110 1    
    87   45   46 1    
    88   45   47 1    
    89   45  111 1    
    90   46  112 1    
    91   46  113 1    
    92   46  114 1    
    93   47   48 2    
    94   47   49 am   BACKBONE|DICT|INTERRES
    95   49   50 1    
    96   49  115 1    
    97   50   51 1    
    98   50   52 1    
    99   50  116 1    
   100   51  117 1    
   101   51  118 1    
   102   51  119 1    
   103   52   53 2    
   104   52   54 am   BACKBONE|DICT|INTERRES
   105   54   55 1    
   106   54  120 1    
   107   55   56 1    
   108   55   57 1    
   109   55  121 1    
   110   56  122 1    
   111   56  123 1    
   112   56  124 1    
   113   57   58 2    
   114   57   59 am   BACKBONE|DICT|INTERRES
   115   59   60 1    
   116   59  125 1    
   117   60   61 1    
   118   60   62 1    
   119   60  126 1    
   120   61  127 1    
   121   61  128 1    
   122   61  129 1    
   123   62   63 2    
   124   62   64 am   BACKBONE|DICT|INTERRES
   125   64   65 1    
   126   64  130 1    
   127   65   66 1    
   128   65   69 1    
   129   65  131 1    
   130   66   67 am   BACKBONE|DICT|INTERRES
   131   66   68 2    
   132   67  132 1    
   133   67  133 1    
   134   69   70 1    
   135   69  134 1    
   136   69  135 1    
   137   70   71 1    
   138   71  136 1    
   139   71  137 1    
@<TRIPOS>SUBSTRUCTURE
     1 UNK         1 GROUP             0       ****    0 ROOT    
