@<TRIPOS>MOLECULE
3R136
137   139    1
SMALL
USER_CHARGES


@<TRIPOS>ATOM
      1 CA         29.0331   24.6568   -4.5415 C.3       0 UNK        -0.1979 
      2 C          28.9798   24.5924   -3.0234 C.2       0 UNK         0.4864 
      3 O          28.4662   25.5168   -2.3924 O.2       0 UNK        -0.5359 
      4 N          29.4901   23.5022   -2.4325 N.am      1 UNK        -0.4318 
      5 CA         29.5885   23.2641   -0.9838 C.3       1 UNK         0.0824 
      6 C6         30.2682   21.9099   -0.6737 C.3       12 UNK        -0.0944 
      7 S7         32.0366   21.9614   -1.1211 S.3       12 UNK        -0.2672 
      8 C8         32.8619   21.6592    0.4771 C.3       12 UNK         0.0333 
      9 C9         32.4745   22.6641    1.5568 C.ar      12 UNK        -0.0807 
     10 C10        32.9048   23.9917    1.4815 C.ar      12 UNK        -0.0894 
     11 C11        32.5770   24.9034    2.4908 C.ar      12 UNK        -0.0804 
     12 C12        31.8156   24.4740    3.5832 C.ar      12 UNK        -0.0824 
     13 C13        31.3688   23.1494    3.6693 C.ar      12 UNK        -0.0762 
     14 C14        31.7079   22.2532    2.6513 C.ar      12 UNK        -0.0782 
     15 C15        30.5505   22.6368    4.8569 C.3       12 UNK         0.0230 
     16 S16        29.4135   23.8488    5.6176 S.3       12 UNK        -0.2608 
     17 C17        28.4081   24.3903    4.1938 C.3       12 UNK        -0.0989 
     18 CA         28.5686   25.9143    3.9417 C.3       5 UNK         0.0716 
     19 N          28.7080   26.2411    2.5189 N.am      5 UNK        -0.4135 
     20 C          29.2323   27.3957    2.0827 C.2       4 UNK         0.5031 
     21 O          29.7051   28.2480    2.8326 O.2       4 UNK        -0.5229 
     22 CA         29.2004   27.6747    0.5710 C.3       4 UNK         0.0329 
     23 CB         30.4841   27.1743   -0.1081 C.3       4 UNK        -0.2001 
     24 N          28.0238   27.1366   -0.1158 N.am      4 UNK        -0.4303 
     25 C          26.7637   27.5213    0.1346 C.2       3 UNK         0.5044 
     26 O          26.4564   28.2939    1.0412 O.2       3 UNK        -0.5152 
     27 CA         25.6613   26.9322   -0.7556 C.3       3 UNK         0.0319 
     28 CB         25.6394   27.6238   -2.1284 C.3       3 UNK        -0.2001 
     29 N          25.8506   25.4939   -0.9303 N.am      3 UNK        -0.4354 
     30 C          25.3419   24.5623   -0.1115 C.2       2 UNK         0.4964 
     31 O          24.5718   24.8108    0.8165 O.2       2 UNK        -0.5047 
     32 CA         25.7796   23.1039   -0.3495 C.3       2 UNK         0.0288 
     33 CB         24.8005   22.3958   -1.2999 C.3       2 UNK        -0.2113 
     34 N          27.1436   22.9712   -0.8720 N.am      2 UNK        -0.4145 
     35 C          28.2469   23.3937   -0.2364 C.2       1 UNK         0.5006 
     36 O          28.2306   23.9240    0.8743 O.2       1 UNK        -0.5103 
     37 C          27.4574   26.7340    4.6350 C.2       5 UNK         0.5055 
     38 O          27.5193   26.9120    5.8528 O.2       5 UNK        -0.5220 
     39 N          26.4703   27.2264    3.8693 N.am      6 UNK        -0.4450 
     40 CA         25.4294   28.1254    4.3676 C.3       6 UNK         0.0367 
     41 CB         24.1718   28.0341    3.4867 C.3       6 UNK        -0.1929 
     42 C          25.9469   29.5691    4.4624 C.2       6 UNK         0.5070 
     43 O          25.7147   30.2183    5.4831 O.2       6 UNK        -0.5237 
     44 N          26.6556   30.0408    3.4263 N.am      7 UNK        -0.4739 
     45 CA         27.2774   31.3632    3.3939 C.3       7 UNK         0.0276 
     46 CB         26.2185   32.4499    3.1161 C.3       7 UNK        -0.1927 
     47 C          28.3993   31.4135    2.3477 C.2       7 UNK         0.5013 
     48 O          28.1166   31.3365    1.1507 O.2       7 UNK        -0.5193 
     49 N          29.6359   31.6094    2.8163 N.am      8 UNK        -0.4253 
     50 CA         30.8207   31.9572    2.0355 C.3       8 UNK         0.0242 
     51 CB         31.3512   30.7597    1.2261 C.3       8 UNK        -0.2000 
     52 C          31.8836   32.4436    3.0210 C.2       8 UNK         0.4948 
     53 O          31.9968   31.8776    4.1112 O.2       8 UNK        -0.5275 
     54 N          32.6730   33.4479    2.6195 N.am      9 UNK        -0.4246 
     55 CA         33.7276   34.0570    3.4425 C.3       9 UNK         0.0261 
     56 CB         34.2942   35.2859    2.7122 C.3       9 UNK        -0.1959 
     57 C          34.8644   33.0932    3.8343 C.2       9 UNK         0.5033 
     58 O          35.5257   33.3207    4.8481 O.2       9 UNK        -0.5390 
     59 N          35.0656   32.0389    3.0329 N.am      10 UNK        -0.4215 
     60 CA         36.0482   30.9830    3.2697 C.3       10 UNK         0.0240 
     61 CB         36.2549   30.1908    1.9676 C.3       10 UNK        -0.1982 
     62 C          35.6716   30.0259    4.4152 C.2       10 UNK         0.4970 
     63 O          36.5828   29.4589    5.0206 O.2       10 UNK        -0.4916 
     64 N          34.3683   29.8364    4.6720 N.am      11 UNK        -0.4279 
     65 CA         33.8487   28.8376    5.6253 C.3       11 UNK         0.1003 
     66 C          32.9556   29.4399    6.7439 C.2       11 UNK         0.5709 
     67 N          32.4098   30.6410    6.6032 N.am      11 UNK        -0.7358 
     68 O          32.7728   28.8083    7.7820 O.2       11 UNK        -0.4999 
     69 C69        33.1267   27.6628    4.9088 C.3       12 UNK        -0.0954 
     70 S70        34.2068   26.7929    3.7163 S.3       12 UNK        -0.2268 
     71 C71        33.0397   26.3513    2.3913 C.3       12 UNK         0.0203 
     72 H72        29.5017   23.7719   -4.9717 H         1 UNK         0.0888 
     73 H73        28.0256   24.7406   -4.9480 H         1 UNK         0.0888 
     74 H74        29.6019   25.5306   -4.8575 H         1 UNK         0.0888 
     75 H75        29.9077   22.7859   -3.0098 H         1 UNK         0.3017 
     76 H76        30.2260   24.0518   -0.5825 H         1 UNK         0.0873 
     77 H77        30.1698   21.6504    0.3813 H         1 UNK         0.0745 
     78 H78        29.7876   21.0990   -1.2240 H         1 UNK         0.0745 
     79 H79        33.9415   21.6983    0.3258 H         1 UNK         0.0705 
     80 H80        32.6393   20.6405    0.7987 H         1 UNK         0.0705 
     81 H81        33.4976   24.3106    0.6349 H         1 UNK         0.1334 
     82 H82        31.5788   25.1756    4.3693 H         1 UNK         0.1417 
     83 H83        31.3807   21.2241    2.7161 H         1 UNK         0.1562 
     84 H84        31.2411   22.2837    5.6237 H         1 UNK         0.0748 
     85 H85        29.9582   21.7711    4.5559 H         1 UNK         0.0748 
     86 H86        27.3666   24.1042    4.3549 H         1 UNK         0.0940 
     87 H87        28.7272   23.8175    3.3245 H         1 UNK         0.0940 
     88 H88        29.4998   26.2397    4.4101 H         1 UNK         0.0703 
     89 H89        28.3948   25.5413    1.8497 H         1 UNK         0.3081 
     90 H90        29.1525   28.7570    0.4454 H         1 UNK         0.0719 
     91 H91        30.6753   26.1258    0.1144 H         1 UNK         0.0809 
     92 H92        30.4385   27.2897   -1.1912 H         1 UNK         0.0809 
     93 H93        31.3481   27.7413    0.2387 H         1 UNK         0.0809 
     94 H94        28.1954   26.5095   -0.9004 H         1 UNK         0.2990 
     95 H95        24.7006   27.1220   -0.2716 H         1 UNK         0.0690 
     96 H96        26.5714   27.4768   -2.6757 H         1 UNK         0.0788 
     97 H97        25.4917   28.6991   -2.0192 H         1 UNK         0.0788 
     98 H98        24.8256   27.2460   -2.7474 H         1 UNK         0.0788 
     99 H99        26.5269   25.2134   -1.6310 H         1 UNK         0.2993 
    100 H100       25.7481   22.5966    0.6174 H         1 UNK         0.0949 
    101 H101       24.8092   22.8423   -2.2951 H         1 UNK         0.0767 
    102 H102       25.0419   21.3376   -1.4029 H         1 UNK         0.0767 
    103 H103       23.7783   22.4577   -0.9236 H         1 UNK         0.0767 
    104 H104       27.2456   22.5616   -1.7892 H         1 UNK         0.3013 
    105 H105       26.5166   27.1049    2.8656 H         1 UNK         0.3121 
    106 H106       25.1447   27.8056    5.3727 H         1 UNK         0.0774 
    107 H107       23.3603   28.6239    3.9143 H         1 UNK         0.0815 
    108 H108       24.3430   28.4102    2.4787 H         1 UNK         0.0815 
    109 H109       23.8176   27.0064    3.4045 H         1 UNK         0.0815 
    110 H110       26.7848   29.4626    2.5982 H         1 UNK         0.2987 
    111 H111       27.7168   31.5613    4.3745 H         1 UNK         0.0949 
    112 H112       25.6885   32.2630    2.1813 H         1 UNK         0.0806 
    113 H113       25.4785   32.5043    3.9145 H         1 UNK         0.0806 
    114 H114       26.6806   33.4349    3.0387 H         1 UNK         0.0806 
    115 H115       29.7993   31.6184    3.8158 H         1 UNK         0.3010 
    116 H116       30.5630   32.7726    1.3563 H         1 UNK         0.0829 
    117 H117       32.2836   31.0090    0.7185 H         1 UNK         0.0813 
    118 H118       31.5474   29.8974    1.8640 H         1 UNK         0.0813 
    119 H119       30.6442   30.4608    0.4545 H         1 UNK         0.0813 
    120 H120       32.5247   33.8510    1.7048 H         1 UNK         0.3038 
    121 H121       33.2635   34.3964    4.3710 H         1 UNK         0.0769 
    122 H122       35.0619   35.7770    3.3122 H         1 UNK         0.0811 
    123 H123       33.5179   36.0260    2.5172 H         1 UNK         0.0811 
    124 H124       34.7500   35.0155    1.7589 H         1 UNK         0.0811 
    125 H125       34.4847   31.9488    2.2128 H         1 UNK         0.3204 
    126 H126       36.9966   31.4555    3.5349 H         1 UNK         0.0748 
    127 H127       37.0092   29.4136    2.1000 H         1 UNK         0.0771 
    128 H128       35.3367   29.6986    1.6434 H         1 UNK         0.0771 
    129 H129       36.5965   30.8363    1.1582 H         1 UNK         0.0771 
    130 H130       33.6757   30.3841    4.1797 H         1 UNK         0.2980 
    131 H131       34.6870   28.3969    6.1678 H         1 UNK         0.0545 
    132 H132       32.4507   31.1454    5.7216 H         1 UNK         0.3459 
    133 H133       31.8504   31.0083    7.3555 H         1 UNK         0.3459 
    134 H134       32.7799   26.9259    5.6355 H         1 UNK         0.0616 
    135 H135       32.2353   28.0349    4.4007 H         1 UNK         0.0616 
    136 H136       33.5337   26.5275    1.4347 H         1 UNK         0.0634 
    137 H137       32.1756   27.0134    2.4079 H         1 UNK         0.0634 
@<TRIPOS>BOND
     1    1    2 1    
     2    1   72 1    
     3    1   73 1    
     4    1   74 1    
     5    2    3 2    
     6    2    4 am   BACKBONE|DICT|INTERRES
     7    4    5 1    
     8    4   75 1    
     9    5    6 1    
    10    5   35 1    
    11    5   76 1    
    12    6    7 1    
    13    6   77 1    
    14    6   78 1    
    15    7    8 1    
    16    8    9 1    
    17    8   79 1    
    18    8   80 1    
    19    9   10 ar   
    20    9   14 ar   
    21   10   11 ar   
    22   10   81 1    
    23   11   12 ar   
    24   11   71 1    
    25   12   13 ar   
    26   12   82 1    
    27   13   14 ar   
    28   13   15 1    
    29   14   83 1    
    30   15   16 1    
    31   15   84 1    
    32   15   85 1    
    33   16   17 1    
    34   17   18 1    
    35   17   86 1    
    36   17   87 1    
    37   18   19 1    
    38   18   37 1    
    39   18   88 1    
    40   19   20 am   BACKBONE|DICT|INTERRES
    41   19   89 1    
    42   20   21 2    
    43   20   22 1    
    44   22   23 1    
    45   22   24 1    
    46   22   90 1    
    47   23   91 1    
    48   23   92 1    
    49   23   93 1    
    50   24   25 am   BACKBONE|DICT|INTERRES
    51   24   94 1    
    52   25   26 2    
    53   25   27 1    
    54   27   28 1    
    55   27   29 1    
    56   27   95 1    
    57   28   96 1    
    58   28   97 1    
    59   28   98 1    
    60   29   30 am   BACKBONE|DICT|INTERRES
    61   29   99 1    
    62   30   31 2    
    63   30   32 1    
    64   32   33 1    
    65   32   34 1    
    66   32  100 1    
    67   33  101 1    
    68   33  102 1    
    69   33  103 1    
    70   34   35 am   BACKBONE|DICT|INTERRES
    71   34  104 1    
    72   35   36 2    
    73   37   38 2    
    74   37   39 am   BACKBONE|DICT|INTERRES
    75   39   40 1    
    76   39  105 1    
    77   40   41 1    
    78   40   42 1    
    79   40  106 1    
    80   41  107 1    
    81   41  108 1    
    82   41  109 1    
    83   42   43 2    
    84   42   44 am   BACKBONE|DICT|INTERRES
    85   44   45 1    
    86   44  110 1    
    87   45   46 1    
    88   45   47 1    
    89   45  111 1    
    90   46  112 1    
    91   46  113 1    
    92   46  114 1    
    93   47   48 2    
    94   47   49 am   BACKBONE|DICT|INTERRES
    95   49   50 1    
    96   49  115 1    
    97   50   51 1    
    98   50   52 1    
    99   50  116 1    
   100   51  117 1    
   101   51  118 1    
   102   51  119 1    
   103   52   53 2    
   104   52   54 am   BACKBONE|DICT|INTERRES
   105   54   55 1    
   106   54  120 1    
   107   55   56 1    
   108   55   57 1    
   109   55  121 1    
   110   56  122 1    
   111   56  123 1    
   112   56  124 1    
   113   57   58 2    
   114   57   59 am   BACKBONE|DICT|INTERRES
   115   59   60 1    
   116   59  125 1    
   117   60   61 1    
   118   60   62 1    
   119   60  126 1    
   120   61  127 1    
   121   61  128 1    
   122   61  129 1    
   123   62   63 2    
   124   62   64 am   BACKBONE|DICT|INTERRES
   125   64   65 1    
   126   64  130 1    
   127   65   66 1    
   128   65   69 1    
   129   65  131 1    
   130   66   67 am   BACKBONE|DICT|INTERRES
   131   66   68 2    
   132   67  132 1    
   133   67  133 1    
   134   69   70 1    
   135   69  134 1    
   136   69  135 1    
   137   70   71 1    
   138   71  136 1    
   139   71  137 1    
@<TRIPOS>SUBSTRUCTURE
     1 UNK         1 GROUP             0       ****    0 ROOT    
