@<TRIPOS>MOLECULE
3R136
137   139    1
SMALL
USER_CHARGES


@<TRIPOS>ATOM
      1 CA         32.7714   26.0550    0.2839 C.3       0 UNK        -0.1979 
      2 C          31.8497   24.8476    0.2329 C.2       0 UNK         0.4864 
      3 O          32.1365   23.8922   -0.4893 O.2       0 UNK        -0.5359 
      4 N          30.7409   24.8955    0.9849 N.am      1 UNK        -0.4318 
      5 CA         29.6848   23.8751    1.0392 C.3       1 UNK         0.0824 
      6 C6         30.1839   22.5066    1.5866 C.3       12 UNK        -0.0944 
      7 S7         28.9020   21.6633    2.5767 S.3       12 UNK        -0.2672 
      8 C8         29.5071   21.9156    4.2754 C.3       12 UNK         0.0333 
      9 C9         29.5929   23.3894    4.6492 C.ar      12 UNK        -0.0807 
     10 C10        30.8383   24.0147    4.7598 C.ar      12 UNK        -0.0894 
     11 C11        30.9282   25.3566    5.1391 C.ar      12 UNK        -0.0804 
     12 C12        29.7603   26.0812    5.3925 C.ar      12 UNK        -0.0824 
     13 C13        28.5079   25.4696    5.2773 C.ar      12 UNK        -0.0762 
     14 C14        28.4310   24.1214    4.9119 C.ar      12 UNK        -0.0782 
     15 C15        27.2404   26.2528    5.5891 C.3       12 UNK         0.0230 
     16 S16        26.1577   26.4360    4.1371 S.3       12 UNK        -0.2608 
     17 C17        27.1122   27.5761    3.0780 C.3       12 UNK        -0.0989 
     18 CA         27.2030   27.0771    1.6129 C.3       5 UNK         0.0716 
     19 N          25.9088   26.7899    0.9806 N.am      5 UNK        -0.4135 
     20 C          24.8636   27.6102    0.7983 C.2       4 UNK         0.5031 
     21 O          24.8503   28.7861    1.1686 O.2       4 UNK        -0.5229 
     22 CA         23.6518   27.0325    0.0397 C.3       4 UNK         0.0329 
     23 CB         22.9407   28.1057   -0.8049 C.3       4 UNK        -0.2001 
     24 N          24.0591   25.9365   -0.8421 N.am      4 UNK        -0.4303 
     25 C          23.9596   24.6294   -0.5808 C.2       3 UNK         0.5044 
     26 O          23.4238   24.1696    0.4270 O.2       3 UNK        -0.5152 
     27 CA         24.6191   23.6743   -1.5917 C.3       3 UNK         0.0319 
     28 CB         23.8532   23.6483   -2.9294 C.3       3 UNK        -0.2001 
     29 N          26.0571   23.9195   -1.7917 N.am      3 UNK        -0.4354 
     30 C          26.6722   24.9811   -2.3341 C.2       2 UNK         0.4964 
     31 O          26.0797   25.9778   -2.7523 O.2       2 UNK        -0.5047 
     32 CA         28.2111   24.9238   -2.3854 C.3       2 UNK         0.0288 
     33 CB         28.8221   26.1127   -3.1468 C.3       2 UNK        -0.2113 
     34 N          28.8099   24.8662   -1.0487 N.am      2 UNK        -0.4145 
     35 C          28.9058   23.7592   -0.2959 C.2       1 UNK         0.5006 
     36 O          28.4030   22.6845   -0.6329 O.2       1 UNK        -0.5103 
     37 C          28.0821   27.9997    0.7455 C.2       5 UNK         0.5055 
     38 O          29.1947   27.6056    0.3870 O.2       5 UNK        -0.5220 
     39 N          27.5485   29.1814    0.4074 N.am      6 UNK        -0.4450 
     40 CA         28.1001   30.2666   -0.4114 C.3       6 UNK         0.0367 
     41 CB         28.4041   29.8022   -1.8485 C.3       6 UNK        -0.1929 
     42 C          29.3134   30.9642    0.2210 C.2       6 UNK         0.5070 
     43 O          29.2343   32.1518    0.5328 O.2       6 UNK        -0.5237 
     44 N          30.4069   30.2200    0.4127 N.am      7 UNK        -0.4739 
     45 CA         31.6867   30.7114    0.9299 C.3       7 UNK         0.0276 
     46 CB         32.8277   30.0858    0.1074 C.3       7 UNK        -0.1927 
     47 C          31.8369   30.4408    2.4372 C.2       7 UNK         0.5013 
     48 O          32.9540   30.2139    2.9043 O.2       7 UNK        -0.5193 
     49 N          30.7175   30.4813    3.1763 N.am      8 UNK        -0.4253 
     50 CA         30.5933   30.1439    4.6016 C.3       8 UNK         0.0242 
     51 CB         29.1387   30.3679    5.0469 C.3       8 UNK        -0.2000 
     52 C          31.5494   30.8948    5.5463 C.2       8 UNK         0.4948 
     53 O          31.9194   30.3491    6.5854 O.2       8 UNK        -0.5275 
     54 N          31.9286   32.1240    5.1737 N.am      9 UNK        -0.4246 
     55 CA         32.8976   32.9475    5.8979 C.3       9 UNK         0.0261 
     56 CB         32.6732   34.4225    5.5241 C.3       9 UNK        -0.1959 
     57 C          34.3622   32.5469    5.6348 C.2       9 UNK         0.5033 
     58 O          35.2267   32.9272    6.4263 O.2       9 UNK        -0.5390 
     59 N          34.6281   31.8286    4.5343 N.am      10 UNK        -0.4215 
     60 CA         35.9674   31.4228    4.1101 C.3       10 UNK         0.0240 
     61 CB         36.1145   31.6299    2.5933 C.3       10 UNK        -0.1982 
     62 C          36.2614   29.9659    4.4889 C.2       10 UNK         0.4970 
     63 O          37.3507   29.6967    4.9980 O.2       10 UNK        -0.4916 
     64 N          35.3131   29.0532    4.2296 N.am      11 UNK        -0.4279 
     65 CA         35.4423   27.6293    4.5766 C.3       11 UNK         0.1003 
     66 C          35.3484   27.3432    6.1032 C.2       11 UNK         0.5709 
     67 N          35.7688   26.1612    6.5355 N.am      11 UNK        -0.7358 
     68 O          34.8894   28.1622    6.8968 O.2       11 UNK        -0.4999 
     69 C69        34.5189   26.7189    3.7205 C.3       12 UNK        -0.0954 
     70 S70        32.7271   27.0281    3.8723 S.3       12 UNK        -0.2268 
     71 C71        32.2904   26.0077    5.3109 C.3       12 UNK         0.0203 
     72 H72        32.3695   26.8379    0.9256 H         1 UNK         0.0888 
     73 H73        33.7487   25.7657    0.6682 H         1 UNK         0.0888 
     74 H74        32.9037   26.4703   -0.7148 H         1 UNK         0.0888 
     75 H75        30.5709   25.7224    1.5419 H         1 UNK         0.3017 
     76 H76        28.9707   24.2694    1.7613 H         1 UNK         0.0873 
     77 H77        30.5104   21.8467    0.7806 H         1 UNK         0.0745 
     78 H78        31.0659   22.6453    2.2128 H         1 UNK         0.0745 
     79 H79        30.4779   21.4295    4.3851 H         1 UNK         0.0705 
     80 H80        28.8340   21.4075    4.9674 H         1 UNK         0.0705 
     81 H81        31.7413   23.4519    4.5659 H         1 UNK         0.1334 
     82 H82        29.8305   27.1169    5.6944 H         1 UNK         0.1417 
     83 H83        27.4648   23.6414    4.8317 H         1 UNK         0.1562 
     84 H84        27.4749   27.2415    5.9872 H         1 UNK         0.0748 
     85 H85        26.6887   25.7322    6.3731 H         1 UNK         0.0748 
     86 H86        28.1168   27.6872    3.4889 H         1 UNK         0.0940 
     87 H87        26.6477   28.5619    3.1341 H         1 UNK         0.0940 
     88 H88        27.7143   26.1172    1.6435 H         1 UNK         0.0703 
     89 H89        25.8032   25.8491    0.6329 H         1 UNK         0.3081 
     90 H90        22.9476   26.6675    0.7900 H         1 UNK         0.0719 
     91 H91        23.6136   28.5512   -1.5388 H         1 UNK         0.0809 
     92 H92        22.0894   27.6867   -1.3416 H         1 UNK         0.0809 
     93 H93        22.5592   28.9123   -0.1775 H         1 UNK         0.0809 
     94 H94        24.5948   26.1945   -1.6694 H         1 UNK         0.2990 
     95 H95        24.5514   22.6728   -1.1632 H         1 UNK         0.0690 
     96 H96        24.2715   22.9056   -3.6088 H         1 UNK         0.0788 
     97 H97        23.8728   24.6129   -3.4372 H         1 UNK         0.0788 
     98 H98        22.8056   23.3882   -2.7716 H         1 UNK         0.0788 
     99 H99        26.6704   23.1923   -1.4314 H         1 UNK         0.2993 
    100 H100       28.4796   24.0155   -2.9298 H         1 UNK         0.0949 
    101 H101       28.5827   27.0573   -2.6623 H         1 UNK         0.0767 
    102 H102       29.9075   26.0312   -3.2094 H         1 UNK         0.0767 
    103 H103       28.4405   26.1628   -4.1675 H         1 UNK         0.0767 
    104 H104       29.2121   25.7273   -0.6957 H         1 UNK         0.3013 
    105 H105       26.6033   29.3453    0.7499 H         1 UNK         0.3121 
    106 H106       27.3061   31.0125   -0.4763 H         1 UNK         0.0774 
    107 H107       28.6653   30.6515   -2.4810 H         1 UNK         0.0815 
    108 H108       29.2431   29.1077   -1.8852 H         1 UNK         0.0815 
    109 H109       27.5397   29.3152   -2.3001 H         1 UNK         0.0815 
    110 H110       30.3341   29.2249    0.2201 H         1 UNK         0.2987 
    111 H111       31.7454   31.7942    0.8000 H         1 UNK         0.0949 
    112 H112       33.7900   30.5207    0.3767 H         1 UNK         0.0806 
    113 H113       32.9003   29.0115    0.2689 H         1 UNK         0.0806 
    114 H114       32.6880   30.2566   -0.9600 H         1 UNK         0.0806 
    115 H115       29.8616   30.7117    2.6930 H         1 UNK         0.3010 
    116 H116       30.8203   29.0818    4.6964 H         1 UNK         0.0829 
    117 H117       28.4372   29.8007    4.4386 H         1 UNK         0.0813 
    118 H118       28.9947   30.0535    6.0818 H         1 UNK         0.0813 
    119 H119       28.8567   31.4198    4.9846 H         1 UNK         0.0813 
    120 H120       31.5585   32.4997    4.3127 H         1 UNK         0.3038 
    121 H121       32.7171   32.8383    6.9697 H         1 UNK         0.0769 
    122 H122       33.3566   35.0724    6.0728 H         1 UNK         0.0811 
    123 H123       31.6601   34.7442    5.7663 H         1 UNK         0.0811 
    124 H124       32.8387   34.6005    4.4608 H         1 UNK         0.0811 
    125 H125       33.8576   31.4720    3.9752 H         1 UNK         0.3204 
    126 H126       36.7170   32.0495    4.5983 H         1 UNK         0.0748 
    127 H127       37.1210   31.3718    2.2614 H         1 UNK         0.0771 
    128 H128       35.4179   31.0105    2.0290 H         1 UNK         0.0771 
    129 H129       35.9384   32.6695    2.3166 H         1 UNK         0.0771 
    130 H130       34.4309   29.3417    3.8166 H         1 UNK         0.2980 
    131 H131       36.4615   27.3495    4.3015 H         1 UNK         0.0545 
    132 H132       36.1534   25.4780    5.9022 H         1 UNK         0.3459 
    133 H133       35.7138   25.9547    7.5204 H         1 UNK         0.3459 
    134 H134       34.7729   26.8608    2.6694 H         1 UNK         0.0616 
    135 H135       34.7209   25.6651    3.9178 H         1 UNK         0.0616 
    136 H136       32.2930   26.6355    6.2033 H         1 UNK         0.0634 
    137 H137       33.0482   25.2409    5.4761 H         1 UNK         0.0634 
@<TRIPOS>BOND
     1    1    2 1    
     2    1   72 1    
     3    1   73 1    
     4    1   74 1    
     5    2    3 2    
     6    2    4 am   BACKBONE|DICT|INTERRES
     7    4    5 1    
     8    4   75 1    
     9    5    6 1    
    10    5   35 1    
    11    5   76 1    
    12    6    7 1    
    13    6   77 1    
    14    6   78 1    
    15    7    8 1    
    16    8    9 1    
    17    8   79 1    
    18    8   80 1    
    19    9   10 ar   
    20    9   14 ar   
    21   10   11 ar   
    22   10   81 1    
    23   11   12 ar   
    24   11   71 1    
    25   12   13 ar   
    26   12   82 1    
    27   13   14 ar   
    28   13   15 1    
    29   14   83 1    
    30   15   16 1    
    31   15   84 1    
    32   15   85 1    
    33   16   17 1    
    34   17   18 1    
    35   17   86 1    
    36   17   87 1    
    37   18   19 1    
    38   18   37 1    
    39   18   88 1    
    40   19   20 am   BACKBONE|DICT|INTERRES
    41   19   89 1    
    42   20   21 2    
    43   20   22 1    
    44   22   23 1    
    45   22   24 1    
    46   22   90 1    
    47   23   91 1    
    48   23   92 1    
    49   23   93 1    
    50   24   25 am   BACKBONE|DICT|INTERRES
    51   24   94 1    
    52   25   26 2    
    53   25   27 1    
    54   27   28 1    
    55   27   29 1    
    56   27   95 1    
    57   28   96 1    
    58   28   97 1    
    59   28   98 1    
    60   29   30 am   BACKBONE|DICT|INTERRES
    61   29   99 1    
    62   30   31 2    
    63   30   32 1    
    64   32   33 1    
    65   32   34 1    
    66   32  100 1    
    67   33  101 1    
    68   33  102 1    
    69   33  103 1    
    70   34   35 am   BACKBONE|DICT|INTERRES
    71   34  104 1    
    72   35   36 2    
    73   37   38 2    
    74   37   39 am   BACKBONE|DICT|INTERRES
    75   39   40 1    
    76   39  105 1    
    77   40   41 1    
    78   40   42 1    
    79   40  106 1    
    80   41  107 1    
    81   41  108 1    
    82   41  109 1    
    83   42   43 2    
    84   42   44 am   BACKBONE|DICT|INTERRES
    85   44   45 1    
    86   44  110 1    
    87   45   46 1    
    88   45   47 1    
    89   45  111 1    
    90   46  112 1    
    91   46  113 1    
    92   46  114 1    
    93   47   48 2    
    94   47   49 am   BACKBONE|DICT|INTERRES
    95   49   50 1    
    96   49  115 1    
    97   50   51 1    
    98   50   52 1    
    99   50  116 1    
   100   51  117 1    
   101   51  118 1    
   102   51  119 1    
   103   52   53 2    
   104   52   54 am   BACKBONE|DICT|INTERRES
   105   54   55 1    
   106   54  120 1    
   107   55   56 1    
   108   55   57 1    
   109   55  121 1    
   110   56  122 1    
   111   56  123 1    
   112   56  124 1    
   113   57   58 2    
   114   57   59 am   BACKBONE|DICT|INTERRES
   115   59   60 1    
   116   59  125 1    
   117   60   61 1    
   118   60   62 1    
   119   60  126 1    
   120   61  127 1    
   121   61  128 1    
   122   61  129 1    
   123   62   63 2    
   124   62   64 am   BACKBONE|DICT|INTERRES
   125   64   65 1    
   126   64  130 1    
   127   65   66 1    
   128   65   69 1    
   129   65  131 1    
   130   66   67 am   BACKBONE|DICT|INTERRES
   131   66   68 2    
   132   67  132 1    
   133   67  133 1    
   134   69   70 1    
   135   69  134 1    
   136   69  135 1    
   137   70   71 1    
   138   71  136 1    
   139   71  137 1    
@<TRIPOS>SUBSTRUCTURE
     1 UNK         1 GROUP             0       ****    0 ROOT    
