@<TRIPOS>MOLECULE
3R136
137   139    1
SMALL
USER_CHARGES


@<TRIPOS>ATOM
      1 CA         27.0824   18.3463    3.7956 C.3       0 UNK        -0.1979 
      2 C          27.3982   18.9049    2.4155 C.2       0 UNK         0.4864 
      3 O          26.9741   18.3274    1.4127 O.2       0 UNK        -0.5359 
      4 N          28.1442   20.0165    2.3606 N.am      1 UNK        -0.4318 
      5 CA         28.4928   20.7363    1.1306 C.3       1 UNK         0.0824 
      6 C6         29.8847   21.4180    1.2504 C.3       12 UNK        -0.0944 
      7 S7         30.7482   21.4675   -0.3547 S.3       12 UNK        -0.2672 
      8 C8         32.4274   21.9507    0.1519 C.3       12 UNK         0.0333 
      9 C9         32.5214   23.4338    0.4809 C.ar      12 UNK        -0.0807 
     10 C10        32.8441   23.8580    1.7744 C.ar      12 UNK        -0.0894 
     11 C11        32.9797   25.2206    2.0605 C.ar      12 UNK        -0.0804 
     12 C12        32.7737   26.1578    1.0414 C.ar      12 UNK        -0.0824 
     13 C13        32.4493   25.7475   -0.2538 C.ar      12 UNK        -0.0762 
     14 C14        32.3252   24.3832   -0.5269 C.ar      12 UNK        -0.0782 
     15 C15        32.2764   26.7665   -1.3714 C.3       12 UNK         0.0230 
     16 S16        30.5501   27.3190   -1.5419 S.3       12 UNK        -0.2608 
     17 C17        30.4849   28.7184   -0.3712 C.3       12 UNK        -0.0989 
     18 CA         29.2132   28.6918    0.5160 C.3       5 UNK         0.0716 
     19 N          29.1082   27.4799    1.3336 N.am      5 UNK        -0.4135 
     20 C          29.7843   27.2062    2.4620 C.2       4 UNK         0.5031 
     21 O          30.7006   27.9106    2.8957 O.2       4 UNK        -0.5229 
     22 CA         29.3432   25.9638    3.2683 C.3       4 UNK         0.0329 
     23 CB         29.4529   26.2031    4.7871 C.3       4 UNK        -0.2001 
     24 N          28.0006   25.4660    2.9337 N.am      4 UNK        -0.4303 
     25 C          26.8402   26.1425    2.9824 C.2       3 UNK         0.5044 
     26 O          26.7387   27.3010    3.3882 O.2       3 UNK        -0.5152 
     27 CA         25.6036   25.4217    2.4062 C.3       3 UNK         0.0319 
     28 CB         24.4955   26.4072    1.9786 C.3       3 UNK        -0.2001 
     29 N          25.9221   24.5072    1.2990 N.am      3 UNK        -0.4354 
     30 C          26.5719   24.7890    0.1594 C.2       2 UNK         0.4964 
     31 O          27.0362   25.9005   -0.1035 O.2       2 UNK        -0.5047 
     32 CA         26.7768   23.6115   -0.8166 C.3       2 UNK         0.0288 
     33 CB         27.3446   24.0707   -2.1732 C.3       2 UNK        -0.2113 
     34 N          27.6599   22.5752   -0.2703 N.am      2 UNK        -0.4145 
     35 C          27.3719   21.7221    0.7226 C.2       1 UNK         0.5006 
     36 O          26.2837   21.7122    1.3070 O.2       1 UNK        -0.5103 
     37 C          29.0627   29.9608    1.3858 C.2       5 UNK         0.5055 
     38 O          29.9084   30.8544    1.3141 O.2       5 UNK        -0.5220 
     39 N          28.0305   29.9858    2.2460 N.am      6 UNK        -0.4450 
     40 CA         27.8316   30.9591    3.3304 C.3       6 UNK         0.0367 
     41 CB         26.5252   30.6386    4.0738 C.3       6 UNK        -0.1929 
     42 C          27.8647   32.4457    2.9329 C.2       6 UNK         0.5070 
     43 O          28.2050   33.2836    3.7678 O.2       6 UNK        -0.5237 
     44 N          27.5299   32.7490    1.6732 N.am      7 UNK        -0.4739 
     45 CA         27.6016   34.0925    1.0966 C.3       7 UNK         0.0276 
     46 CB         26.7707   34.1196   -0.1973 C.3       7 UNK        -0.1927 
     47 C          29.0381   34.5815    0.8209 C.2       7 UNK         0.5013 
     48 O          29.2183   35.7854    0.6302 O.2       7 UNK        -0.5193 
     49 N          30.0176   33.6661    0.7722 N.am      8 UNK        -0.4253 
     50 CA         31.4044   33.9537    0.3988 C.3       8 UNK         0.0242 
     51 CB         31.6829   33.3648   -0.9953 C.3       8 UNK        -0.2000 
     52 C          32.4270   33.4236    1.4145 C.2       8 UNK         0.4948 
     53 O          33.3876   34.1372    1.7080 O.2       8 UNK        -0.5275 
     54 N          32.2376   32.1909    1.9038 N.am      9 UNK        -0.4246 
     55 CA         33.2006   31.4758    2.7427 C.3       9 UNK         0.0261 
     56 CB         33.5961   30.1527    2.0634 C.3       9 UNK        -0.1959 
     57 C          32.6474   31.2403    4.1524 C.2       9 UNK         0.5033 
     58 O          33.1957   31.7967    5.1044 O.2       9 UNK        -0.5390 
     59 N          31.6010   30.4051    4.2648 N.am      10 UNK        -0.4215 
     60 CA         31.0100   29.9022    5.5154 C.3       10 UNK         0.0240 
     61 CB         30.4201   31.0500    6.3670 C.3       10 UNK        -0.1982 
     62 C          31.9825   29.0082    6.3161 C.2       10 UNK         0.4970 
     63 O          31.9409   29.0071    7.5472 O.2       10 UNK        -0.4916 
     64 N          32.8405   28.2627    5.6062 N.am      11 UNK        -0.4279 
     65 CA         33.9004   27.4026    6.1626 C.3       11 UNK         0.1003 
     66 C          33.4483   26.0553    6.8049 C.2       11 UNK         0.5709 
     67 N          32.1619   25.8145    7.0170 N.am      11 UNK        -0.7358 
     68 O          34.2810   25.2137    7.1328 O.2       11 UNK        -0.4999 
     69 C69        35.1098   27.2716    5.1914 C.3       12 UNK        -0.0954 
     70 S70        34.8275   26.7408    3.4605 S.3       12 UNK        -0.2268 
     71 C71        33.3433   25.6827    3.4674 C.3       12 UNK         0.0203 
     72 H72        27.4571   17.3268    3.8828 H         1 UNK         0.0888 
     73 H73        27.5324   18.9416    4.5899 H         1 UNK         0.0888 
     74 H74        26.0046   18.3286    3.9547 H         1 UNK         0.0888 
     75 H75        28.4308   20.4580    3.2224 H         1 UNK         0.3017 
     76 H76        28.5476   19.9963    0.3286 H         1 UNK         0.0873 
     77 H77        30.5204   20.8504    1.9325 H         1 UNK         0.0745 
     78 H78        29.8197   22.4234    1.6721 H         1 UNK         0.0745 
     79 H79        32.7482   21.3361    0.9945 H         1 UNK         0.0705 
     80 H80        33.1154   21.7286   -0.6651 H         1 UNK         0.0705 
     81 H81        33.0037   23.1264    2.5547 H         1 UNK         0.1334 
     82 H82        32.8781   27.2104    1.2604 H         1 UNK         0.1417 
     83 H83        32.0830   24.0561   -1.5292 H         1 UNK         0.1562 
     84 H84        32.5904   26.3246   -2.3183 H         1 UNK         0.0748 
     85 H85        32.9320   27.6244   -1.2139 H         1 UNK         0.0748 
     86 H86        30.5217   29.6366   -0.9606 H         1 UNK         0.0940 
     87 H87        31.3779   28.7243    0.2513 H         1 UNK         0.0940 
     88 H88        28.3474   28.6835   -0.1479 H         1 UNK         0.0703 
     89 H89        28.3911   26.8291    1.0284 H         1 UNK         0.3081 
     90 H90        30.0437   25.1715    3.0006 H         1 UNK         0.0719 
     91 H91        30.4632   26.4974    5.0599 H         1 UNK         0.0809 
     92 H92        28.7850   26.9970    5.1226 H         1 UNK         0.0809 
     93 H93        29.2148   25.3010    5.3503 H         1 UNK         0.0809 
     94 H94        27.9652   24.5278    2.5626 H         1 UNK         0.2990 
     95 H95        25.2086   24.8043    3.2141 H         1 UNK         0.0690 
     96 H96        23.6217   25.8798    1.5962 H         1 UNK         0.0788 
     97 H97        24.8413   27.0905    1.2021 H         1 UNK         0.0788 
     98 H98        24.1617   27.0140    2.8214 H         1 UNK         0.0788 
     99 H99        25.6692   23.5323    1.4441 H         1 UNK         0.2993 
    100 H100       25.7953   23.1678   -0.9975 H         1 UNK         0.0949 
    101 H101       27.4134   23.2408   -2.8768 H         1 UNK         0.0767 
    102 H102       26.7046   24.8276   -2.6289 H         1 UNK         0.0767 
    103 H103       28.3399   24.5059   -2.0685 H         1 UNK         0.0767 
    104 H104       28.5897   22.5267   -0.6674 H         1 UNK         0.3013 
    105 H105       27.4267   29.1725    2.2796 H         1 UNK         0.3121 
    106 H106       28.6552   30.8090    4.0261 H         1 UNK         0.0774 
    107 H107       26.3347   31.3634    4.8668 H         1 UNK         0.0815 
    108 H108       25.6655   30.6536    3.4032 H         1 UNK         0.0815 
    109 H109       26.5680   29.6578    4.5465 H         1 UNK         0.0815 
    110 H110       27.2606   31.9967    1.0560 H         1 UNK         0.2987 
    111 H111       27.1537   34.7936    1.8047 H         1 UNK         0.0949 
    112 H112       27.1675   33.4333   -0.9465 H         1 UNK         0.0806 
    113 H113       25.7316   33.8494   -0.0085 H         1 UNK         0.0806 
    114 H114       26.7678   35.1171   -0.6392 H         1 UNK         0.0806 
    115 H115       29.7909   32.6956    0.9729 H         1 UNK         0.3010 
    116 H116       31.5613   35.0330    0.3398 H         1 UNK         0.0829 
    117 H117       31.0342   33.8113   -1.7490 H         1 UNK         0.0813 
    118 H118       32.7128   33.5529   -1.3020 H         1 UNK         0.0813 
    119 H119       31.5265   32.2854   -1.0164 H         1 UNK         0.0813 
    120 H120       31.3926   31.6812    1.6468 H         1 UNK         0.3038 
    121 H121       34.1155   32.0618    2.8536 H         1 UNK         0.0769 
    122 H122       34.3365   29.6182    2.6592 H         1 UNK         0.0811 
    123 H123       34.0388   30.3296    1.0831 H         1 UNK         0.0811 
    124 H124       32.7436   29.4899    1.9277 H         1 UNK         0.0811 
    125 H125       31.2514   29.9542    3.4257 H         1 UNK         0.3204 
    126 H126       30.1823   29.2571    5.2185 H         1 UNK         0.0748 
    127 H127       29.7854   30.6565    7.1618 H         1 UNK         0.0771 
    128 H128       31.2011   31.6429    6.8439 H         1 UNK         0.0771 
    129 H129       29.8115   31.7299    5.7720 H         1 UNK         0.0771 
    130 H130       32.7793   28.2893    4.5989 H         1 UNK         0.2980 
    131 H131       34.2952   27.9482    7.0219 H         1 UNK         0.0545 
    132 H132       31.8902   24.9424    7.4422 H         1 UNK         0.3459 
    133 H133       31.4745   26.5261    6.8357 H         1 UNK         0.3459 
    134 H134       35.8743   26.6192    5.6165 H         1 UNK         0.0616 
    135 H135       35.5930   28.2476    5.1241 H         1 UNK         0.0616 
    136 H136       32.4964   26.2246    3.8807 H         1 UNK         0.0634 
    137 H137       33.5235   24.8265    4.1188 H         1 UNK         0.0634 
@<TRIPOS>BOND
     1    1    2 1    
     2    1   72 1    
     3    1   73 1    
     4    1   74 1    
     5    2    3 2    
     6    2    4 am   BACKBONE|DICT|INTERRES
     7    4    5 1    
     8    4   75 1    
     9    5    6 1    
    10    5   35 1    
    11    5   76 1    
    12    6    7 1    
    13    6   77 1    
    14    6   78 1    
    15    7    8 1    
    16    8    9 1    
    17    8   79 1    
    18    8   80 1    
    19    9   10 ar   
    20    9   14 ar   
    21   10   11 ar   
    22   10   81 1    
    23   11   12 ar   
    24   11   71 1    
    25   12   13 ar   
    26   12   82 1    
    27   13   14 ar   
    28   13   15 1    
    29   14   83 1    
    30   15   16 1    
    31   15   84 1    
    32   15   85 1    
    33   16   17 1    
    34   17   18 1    
    35   17   86 1    
    36   17   87 1    
    37   18   19 1    
    38   18   37 1    
    39   18   88 1    
    40   19   20 am   BACKBONE|DICT|INTERRES
    41   19   89 1    
    42   20   21 2    
    43   20   22 1    
    44   22   23 1    
    45   22   24 1    
    46   22   90 1    
    47   23   91 1    
    48   23   92 1    
    49   23   93 1    
    50   24   25 am   BACKBONE|DICT|INTERRES
    51   24   94 1    
    52   25   26 2    
    53   25   27 1    
    54   27   28 1    
    55   27   29 1    
    56   27   95 1    
    57   28   96 1    
    58   28   97 1    
    59   28   98 1    
    60   29   30 am   BACKBONE|DICT|INTERRES
    61   29   99 1    
    62   30   31 2    
    63   30   32 1    
    64   32   33 1    
    65   32   34 1    
    66   32  100 1    
    67   33  101 1    
    68   33  102 1    
    69   33  103 1    
    70   34   35 am   BACKBONE|DICT|INTERRES
    71   34  104 1    
    72   35   36 2    
    73   37   38 2    
    74   37   39 am   BACKBONE|DICT|INTERRES
    75   39   40 1    
    76   39  105 1    
    77   40   41 1    
    78   40   42 1    
    79   40  106 1    
    80   41  107 1    
    81   41  108 1    
    82   41  109 1    
    83   42   43 2    
    84   42   44 am   BACKBONE|DICT|INTERRES
    85   44   45 1    
    86   44  110 1    
    87   45   46 1    
    88   45   47 1    
    89   45  111 1    
    90   46  112 1    
    91   46  113 1    
    92   46  114 1    
    93   47   48 2    
    94   47   49 am   BACKBONE|DICT|INTERRES
    95   49   50 1    
    96   49  115 1    
    97   50   51 1    
    98   50   52 1    
    99   50  116 1    
   100   51  117 1    
   101   51  118 1    
   102   51  119 1    
   103   52   53 2    
   104   52   54 am   BACKBONE|DICT|INTERRES
   105   54   55 1    
   106   54  120 1    
   107   55   56 1    
   108   55   57 1    
   109   55  121 1    
   110   56  122 1    
   111   56  123 1    
   112   56  124 1    
   113   57   58 2    
   114   57   59 am   BACKBONE|DICT|INTERRES
   115   59   60 1    
   116   59  125 1    
   117   60   61 1    
   118   60   62 1    
   119   60  126 1    
   120   61  127 1    
   121   61  128 1    
   122   61  129 1    
   123   62   63 2    
   124   62   64 am   BACKBONE|DICT|INTERRES
   125   64   65 1    
   126   64  130 1    
   127   65   66 1    
   128   65   69 1    
   129   65  131 1    
   130   66   67 am   BACKBONE|DICT|INTERRES
   131   66   68 2    
   132   67  132 1    
   133   67  133 1    
   134   69   70 1    
   135   69  134 1    
   136   69  135 1    
   137   70   71 1    
   138   71  136 1    
   139   71  137 1    
@<TRIPOS>SUBSTRUCTURE
     1 UNK         1 GROUP             0       ****    0 ROOT    
