@<TRIPOS>MOLECULE
3R136
137   139    1
SMALL
USER_CHARGES


@<TRIPOS>ATOM
      1 CA         26.9555   17.5736   -1.3931 C.3       0 UNK        -0.1979 
      2 C          28.0260   18.4469   -0.7547 C.2       0 UNK         0.4864 
      3 O          29.1899   18.0453   -0.7007 O.2       0 UNK        -0.5359 
      4 N          27.6404   19.6324   -0.2644 N.am      1 UNK        -0.4318 
      5 CA         28.5438   20.6290    0.3191 C.3       1 UNK         0.0824 
      6 C6         27.7630   21.6288    1.2091 C.3       12 UNK        -0.0944 
      7 S7         28.8294   22.4118    2.4631 S.3       12 UNK        -0.2672 
      8 C8         27.8341   23.8731    2.8874 C.3       12 UNK         0.0333 
      9 C9         28.6764   24.9322    3.5801 C.ar      12 UNK        -0.0807 
     10 C10        29.6906   25.5811    2.8727 C.ar      12 UNK        -0.0894 
     11 C11        30.4669   26.5675    3.4827 C.ar      12 UNK        -0.0804 
     12 C12        30.2218   26.9092    4.8157 C.ar      12 UNK        -0.0824 
     13 C13        29.1909   26.2879    5.5277 C.ar      12 UNK        -0.0762 
     14 C14        28.4301   25.2890    4.9091 C.ar      12 UNK        -0.0782 
     15 C15        28.8770   26.7173    6.9558 C.3       12 UNK         0.0230 
     16 S16        28.2540   28.4326    7.0509 S.3       12 UNK        -0.2608 
     17 C17        26.9003   28.4238    5.8254 C.3       12 UNK        -0.0989 
     18 CA         27.3476   29.1033    4.5003 C.3       5 UNK         0.0716 
     19 N          27.0465   28.2874    3.3234 N.am      5 UNK        -0.4135 
     20 C          27.6031   28.4632    2.1186 C.2       4 UNK         0.5031 
     21 O          28.4679   29.3125    1.8677 O.2       4 UNK        -0.5229 
     22 CA         27.0854   27.5457    1.0062 C.3       4 UNK         0.0329 
     23 CB         25.9251   28.2009    0.2385 C.3       4 UNK        -0.2001 
     24 N          28.1718   27.2264    0.0844 N.am      4 UNK        -0.4303 
     25 C          28.3015   26.0667   -0.5720 C.2       3 UNK         0.5044 
     26 O          27.4853   25.1468   -0.4955 O.2       3 UNK        -0.5152 
     27 CA         29.5483   25.8672   -1.4472 C.3       3 UNK         0.0319 
     28 CB         30.5943   27.0005   -1.3543 C.3       3 UNK        -0.2001 
     29 N          30.1418   24.5782   -1.0977 N.am      3 UNK        -0.4354 
     30 C          31.0018   23.8813   -1.8488 C.2       2 UNK         0.4964 
     31 O          31.4182   24.2573   -2.9454 O.2       2 UNK        -0.5047 
     32 CA         31.4947   22.5362   -1.2843 C.3       2 UNK         0.0288 
     33 CB         32.8219   22.7327   -0.5322 C.3       2 UNK        -0.2113 
     34 N          30.5398   21.8641   -0.3965 N.am      2 UNK        -0.4145 
     35 C          29.3656   21.3429   -0.7793 C.2       1 UNK         0.5006 
     36 O          28.9287   21.4152   -1.9318 O.2       1 UNK        -0.5103 
     37 C          26.7550   30.5148    4.3398 C.2       5 UNK         0.5055 
     38 O          25.7411   30.6780    3.6554 O.2       5 UNK        -0.5220 
     39 N          27.4192   31.5093    4.9435 N.am      6 UNK        -0.4450 
     40 CA         27.1767   32.9589    4.8494 C.3       6 UNK         0.0367 
     41 CB         25.7695   33.3414    5.3493 C.3       6 UNK        -0.1929 
     42 C          27.4557   33.5580    3.4554 C.2       6 UNK         0.5070 
     43 O          28.0537   34.6306    3.3775 O.2       6 UNK        -0.5237 
     44 N          27.0363   32.8635    2.3899 N.am      7 UNK        -0.4739 
     45 CA         27.2636   33.2204    0.9897 C.3       7 UNK         0.0276 
     46 CB         26.3873   32.3386    0.0859 C.3       7 UNK        -0.1927 
     47 C          28.7466   33.1211    0.6001 C.2       7 UNK         0.5013 
     48 O          29.3179   34.1182    0.1565 O.2       7 UNK        -0.5193 
     49 N          29.3414   31.9343    0.7896 N.am      8 UNK        -0.4253 
     50 CA         30.7774   31.7042    0.6174 C.3       8 UNK         0.0242 
     51 CB         31.0213   30.3861   -0.1330 C.3       8 UNK        -0.2000 
     52 C          31.4781   31.7081    1.9805 C.2       8 UNK         0.4948 
     53 O          32.4896   32.3940    2.1302 O.2       8 UNK        -0.5275 
     54 N          30.9173   30.9664    2.9508 N.am      9 UNK        -0.4246 
     55 CA         31.2864   30.8843    4.3762 C.3       9 UNK         0.0261 
     56 CB         31.1068   32.2487    5.0687 C.3       9 UNK        -0.1959 
     57 C          32.6845   30.3137    4.6893 C.2       9 UNK         0.5033 
     58 O          32.8031   29.4837    5.5913 O.2       9 UNK        -0.5390 
     59 N          33.7131   30.7377    3.9490 N.am      10 UNK        -0.4215 
     60 CA         35.1281   30.4022    4.1359 C.3       10 UNK         0.0240 
     61 CB         35.9809   31.4982    3.4685 C.3       10 UNK        -0.1982 
     62 C          35.5072   28.9825    3.6592 C.2       10 UNK         0.4970 
     63 O          36.5011   28.8210    2.9484 O.2       10 UNK        -0.4916 
     64 N          34.7255   27.9784    4.0698 N.am      11 UNK        -0.4279 
     65 CA         34.9975   26.5484    3.8412 C.3       11 UNK         0.1003 
     66 C          35.8926   25.9042    4.9403 C.2       11 UNK         0.5709 
     67 N          36.2269   26.5955    6.0245 N.am      11 UNK        -0.7358 
     68 O          36.3086   24.7567    4.7990 O.2       11 UNK        -0.4999 
     69 C69        33.6892   25.7412    3.6334 C.3       12 UNK        -0.0954 
     70 S70        32.8425   26.1837    2.0798 S.3       12 UNK        -0.2268 
     71 C71        31.5344   27.2931    2.6810 C.3       12 UNK         0.0203 
     72 H72        27.2030   17.3801   -2.4365 H         1 UNK         0.0888 
     73 H73        26.8921   16.6175   -0.8742 H         1 UNK         0.0888 
     74 H74        25.9725   18.0432   -1.3595 H         1 UNK         0.0888 
     75 H75        26.6785   19.9214   -0.3705 H         1 UNK         0.3017 
     76 H76        29.2451   20.0820    0.9542 H         1 UNK         0.0873 
     77 H77        27.2666   22.3893    0.6021 H         1 UNK         0.0745 
     78 H78        26.9702   21.1119    1.7527 H         1 UNK         0.0745 
     79 H79        26.9964   23.5632    3.5139 H         1 UNK         0.0705 
     80 H80        27.4013   24.3037    1.9854 H         1 UNK         0.0705 
     81 H81        29.8806   25.3159    1.8430 H         1 UNK         0.1334 
     82 H82        30.8089   27.6803    5.2950 H         1 UNK         0.1417 
     83 H83        27.6346   24.8016    5.4564 H         1 UNK         0.1562 
     84 H84        29.7796   26.6340    7.5627 H         1 UNK         0.0748 
     85 H85        28.1415   26.0506    7.4086 H         1 UNK         0.0748 
     86 H86        26.0288   28.9111    6.2685 H         1 UNK         0.0940 
     87 H87        26.5852   27.3929    5.6593 H         1 UNK         0.0940 
     88 H88        28.4333   29.2138    4.5040 H         1 UNK         0.0703 
     89 H89        26.3097   27.6067    3.4275 H         1 UNK         0.3081 
     90 H90        26.7252   26.6272    1.4743 H         1 UNK         0.0719 
     91 H91        26.2627   29.0561   -0.3462 H         1 UNK         0.0809 
     92 H92        25.4615   27.4934   -0.4492 H         1 UNK         0.0809 
     93 H93        25.1462   28.5511    0.9175 H         1 UNK         0.0809 
     94 H94        28.8960   27.9285    0.0207 H         1 UNK         0.2990 
     95 H95        29.1926   25.8122   -2.4781 H         1 UNK         0.0690 
     96 H96        31.4248   26.8301   -2.0392 H         1 UNK         0.0788 
     97 H97        31.0144   27.0833   -0.3534 H         1 UNK         0.0788 
     98 H98        30.1623   27.9628   -1.6294 H         1 UNK         0.0788 
     99 H99        29.7941   24.1568   -0.2475 H         1 UNK         0.2993 
    100 H100       31.6772   21.8767   -2.1357 H         1 UNK         0.0949 
    101 H101       32.6978   23.3662    0.3475 H         1 UNK         0.0767 
    102 H102       33.2394   21.7800   -0.2054 H         1 UNK         0.0767 
    103 H103       33.5669   23.2081   -1.1721 H         1 UNK         0.0767 
    104 H104       30.8077   21.7817    0.5746 H         1 UNK         0.3013 
    105 H105       28.2232   31.2542    5.5001 H         1 UNK         0.3121 
    106 H106       27.8920   33.4194    5.5329 H         1 UNK         0.0774 
    107 H107       25.6560   34.4255    5.3899 H         1 UNK         0.0815 
    108 H108       24.9826   32.9616    4.6972 H         1 UNK         0.0815 
    109 H109       25.5875   32.9589    6.3535 H         1 UNK         0.0815 
    110 H110       26.5205   32.0069    2.5758 H         1 UNK         0.2987 
    111 H111       26.9542   34.2592    0.8533 H         1 UNK         0.0949 
    112 H112       26.5518   32.5709   -0.9673 H         1 UNK         0.0806 
    113 H113       26.6024   31.2799    0.2263 H         1 UNK         0.0806 
    114 H114       25.3277   32.4931    0.2902 H         1 UNK         0.0806 
    115 H115       28.7977   31.1606    1.1589 H         1 UNK         0.3010 
    116 H116       31.2200   32.5042    0.0197 H         1 UNK         0.0829 
    117 H117       30.5936   29.5334    0.3891 H         1 UNK         0.0813 
    118 H118       30.5861   30.4194   -1.1317 H         1 UNK         0.0813 
    119 H119       32.0888   30.1947   -0.2511 H         1 UNK         0.0813 
    120 H120       30.1195   30.4001    2.6825 H         1 UNK         0.3038 
    121 H121       30.5693   30.1955    4.8232 H         1 UNK         0.0769 
    122 H122       31.8452   32.9766    4.7303 H         1 UNK         0.0811 
    123 H123       31.2176   32.1552    6.1499 H         1 UNK         0.0811 
    124 H124       30.1224   32.6699    4.8755 H         1 UNK         0.0811 
    125 H125       33.4904   31.4052    3.2101 H         1 UNK         0.3204 
    126 H126       35.3394   30.4327    5.2068 H         1 UNK         0.0748 
    127 H127       37.0449   31.3334    3.6443 H         1 UNK         0.0771 
    128 H128       35.8261   31.5254    2.3890 H         1 UNK         0.0771 
    129 H129       35.7403   32.4847    3.8656 H         1 UNK         0.0771 
    130 H130       33.9446   28.2067    4.6773 H         1 UNK         0.2980 
    131 H131       35.5764   26.4534    2.9206 H         1 UNK         0.0545 
    132 H132       35.8947   27.5367    6.1568 H         1 UNK         0.3459 
    133 H133       36.8132   26.1641    6.7216 H         1 UNK         0.3459 
    134 H134       33.0171   25.8677    4.4834 H         1 UNK         0.0616 
    135 H135       33.8996   24.6718    3.5740 H         1 UNK         0.0616 
    136 H136       31.9919   28.0843    3.2668 H         1 UNK         0.0634 
    137 H137       31.0591   27.7809    1.8326 H         1 UNK         0.0634 
@<TRIPOS>BOND
     1    1    2 1    
     2    1   72 1    
     3    1   73 1    
     4    1   74 1    
     5    2    3 2    
     6    2    4 am   BACKBONE|DICT|INTERRES
     7    4    5 1    
     8    4   75 1    
     9    5    6 1    
    10    5   35 1    
    11    5   76 1    
    12    6    7 1    
    13    6   77 1    
    14    6   78 1    
    15    7    8 1    
    16    8    9 1    
    17    8   79 1    
    18    8   80 1    
    19    9   10 ar   
    20    9   14 ar   
    21   10   11 ar   
    22   10   81 1    
    23   11   12 ar   
    24   11   71 1    
    25   12   13 ar   
    26   12   82 1    
    27   13   14 ar   
    28   13   15 1    
    29   14   83 1    
    30   15   16 1    
    31   15   84 1    
    32   15   85 1    
    33   16   17 1    
    34   17   18 1    
    35   17   86 1    
    36   17   87 1    
    37   18   19 1    
    38   18   37 1    
    39   18   88 1    
    40   19   20 am   BACKBONE|DICT|INTERRES
    41   19   89 1    
    42   20   21 2    
    43   20   22 1    
    44   22   23 1    
    45   22   24 1    
    46   22   90 1    
    47   23   91 1    
    48   23   92 1    
    49   23   93 1    
    50   24   25 am   BACKBONE|DICT|INTERRES
    51   24   94 1    
    52   25   26 2    
    53   25   27 1    
    54   27   28 1    
    55   27   29 1    
    56   27   95 1    
    57   28   96 1    
    58   28   97 1    
    59   28   98 1    
    60   29   30 am   BACKBONE|DICT|INTERRES
    61   29   99 1    
    62   30   31 2    
    63   30   32 1    
    64   32   33 1    
    65   32   34 1    
    66   32  100 1    
    67   33  101 1    
    68   33  102 1    
    69   33  103 1    
    70   34   35 am   BACKBONE|DICT|INTERRES
    71   34  104 1    
    72   35   36 2    
    73   37   38 2    
    74   37   39 am   BACKBONE|DICT|INTERRES
    75   39   40 1    
    76   39  105 1    
    77   40   41 1    
    78   40   42 1    
    79   40  106 1    
    80   41  107 1    
    81   41  108 1    
    82   41  109 1    
    83   42   43 2    
    84   42   44 am   BACKBONE|DICT|INTERRES
    85   44   45 1    
    86   44  110 1    
    87   45   46 1    
    88   45   47 1    
    89   45  111 1    
    90   46  112 1    
    91   46  113 1    
    92   46  114 1    
    93   47   48 2    
    94   47   49 am   BACKBONE|DICT|INTERRES
    95   49   50 1    
    96   49  115 1    
    97   50   51 1    
    98   50   52 1    
    99   50  116 1    
   100   51  117 1    
   101   51  118 1    
   102   51  119 1    
   103   52   53 2    
   104   52   54 am   BACKBONE|DICT|INTERRES
   105   54   55 1    
   106   54  120 1    
   107   55   56 1    
   108   55   57 1    
   109   55  121 1    
   110   56  122 1    
   111   56  123 1    
   112   56  124 1    
   113   57   58 2    
   114   57   59 am   BACKBONE|DICT|INTERRES
   115   59   60 1    
   116   59  125 1    
   117   60   61 1    
   118   60   62 1    
   119   60  126 1    
   120   61  127 1    
   121   61  128 1    
   122   61  129 1    
   123   62   63 2    
   124   62   64 am   BACKBONE|DICT|INTERRES
   125   64   65 1    
   126   64  130 1    
   127   65   66 1    
   128   65   69 1    
   129   65  131 1    
   130   66   67 am   BACKBONE|DICT|INTERRES
   131   66   68 2    
   132   67  132 1    
   133   67  133 1    
   134   69   70 1    
   135   69  134 1    
   136   69  135 1    
   137   70   71 1    
   138   71  136 1    
   139   71  137 1    
@<TRIPOS>SUBSTRUCTURE
     1 UNK         1 GROUP             0       ****    0 ROOT    
