@<TRIPOS>MOLECULE
3R136
137   139    1
SMALL
USER_CHARGES


@<TRIPOS>ATOM
      1 CA         29.2902   19.7940    3.2211 C.3       0 UNK        -0.1979 
      2 C          28.6465   20.4810    2.0264 C.2       0 UNK         0.4864 
      3 O          27.4945   20.1916    1.6965 O.2       0 UNK        -0.5359 
      4 N          29.3769   21.3955    1.3766 N.am      1 UNK        -0.4318 
      5 CA         28.9439   22.1774    0.2148 C.3       1 UNK         0.0824 
      6 C6         30.1502   22.7407   -0.5944 C.3       12 UNK        -0.0944 
      7 S7         31.5396   21.5811   -0.8970 S.3       12 UNK        -0.2672 
      8 C8         32.7715   21.8940    0.4337 C.3       12 UNK         0.0333 
      9 C9         32.6992   23.2904    1.0412 C.ar      12 UNK        -0.0807 
     10 C10        33.2184   24.3954    0.3576 C.ar      12 UNK        -0.0894 
     11 C11        33.0377   25.6899    0.8597 C.ar      12 UNK        -0.0804 
     12 C12        32.3262   25.8710    2.0500 C.ar      12 UNK        -0.0824 
     13 C13        31.8456   24.7719    2.7639 C.ar      12 UNK        -0.0762 
     14 C14        32.0508   23.4842    2.2643 C.ar      12 UNK        -0.0782 
     15 C15        31.0797   24.9647    4.0623 C.3       12 UNK         0.0230 
     16 S16        29.3121   24.6267    3.8044 S.3       12 UNK        -0.2608 
     17 C17        28.5232   26.2322    4.1451 C.3       12 UNK        -0.0989 
     18 CA         28.9243   27.4133    3.2198 C.3       5 UNK         0.0716 
     19 N          28.8654   27.1058    1.7831 N.am      5 UNK        -0.4135 
     20 C          29.2472   27.9526    0.8111 C.2       4 UNK         0.5031 
     21 O          29.7685   29.0463    1.0206 O.2       4 UNK        -0.5229 
     22 CA         28.9419   27.5579   -0.6415 C.3       4 UNK         0.0329 
     23 CB         30.0690   26.6999   -1.2344 C.3       4 UNK        -0.2001 
     24 N          27.6637   26.8570   -0.7485 N.am      4 UNK        -0.4303 
     25 C          26.4667   27.4556   -0.6918 C.2       3 UNK         0.5044 
     26 O          26.3180   28.6735   -0.5953 O.2       3 UNK        -0.5152 
     27 CA         25.2269   26.5424   -0.7135 C.3       3 UNK         0.0319 
     28 CB         24.8111   26.2323   -2.1599 C.3       3 UNK        -0.2001 
     29 N          25.4165   25.2874    0.0211 N.am      3 UNK        -0.4354 
     30 C          25.6033   25.2130    1.3463 C.2       2 UNK         0.4964 
     31 O          25.6050   26.1950    2.0901 O.2       2 UNK        -0.5047 
     32 CA         25.8798   23.8181    1.9399 C.3       2 UNK         0.0288 
     33 CB         24.5611   23.0645    2.1748 C.3       2 UNK        -0.2113 
     34 N          26.8072   22.9537    1.1904 N.am      2 UNK        -0.4145 
     35 C          27.9899   23.3106    0.6669 C.2       1 UNK         0.5006 
     36 O          28.3596   24.4812    0.5851 O.2       1 UNK        -0.5103 
     37 C          28.0582   28.6398    3.5751 C.2       5 UNK         0.5055 
     38 O          28.4867   29.4785    4.3666 O.2       5 UNK        -0.5220 
     39 N          26.8559   28.7195    2.9852 N.am      6 UNK        -0.4450 
     40 CA         25.9406   29.8521    3.1262 C.3       6 UNK         0.0367 
     41 CB         24.5640   29.4746    2.5561 C.3       6 UNK        -0.1929 
     42 C          26.4734   31.1344    2.4634 C.2       6 UNK         0.5070 
     43 O          26.3125   32.2153    3.0307 O.2       6 UNK        -0.5237 
     44 N          27.0894   30.9979    1.2805 N.am      7 UNK        -0.4739 
     45 CA         27.6667   32.1071    0.5182 C.3       7 UNK         0.0276 
     46 CB         27.9415   31.6546   -0.9247 C.3       7 UNK        -0.1927 
     47 C          28.9428   32.6844    1.1535 C.2       7 UNK         0.5013 
     48 O          29.0905   33.9069    1.1933 O.2       7 UNK        -0.5193 
     49 N          29.8404   31.8091    1.6218 N.am      8 UNK        -0.4253 
     50 CA         31.1357   32.1617    2.1927 C.3       8 UNK         0.0242 
     51 CB         32.2371   31.8827    1.1519 C.3       8 UNK        -0.2000 
     52 C          31.3450   31.3571    3.4785 C.2       8 UNK         0.4948 
     53 O          31.9020   30.2610    3.4317 O.2       8 UNK        -0.5275 
     54 N          30.9223   31.9238    4.6166 N.am      9 UNK        -0.4246 
     55 CA         31.0215   31.3083    5.9483 C.3       9 UNK         0.0261 
     56 CB         30.3079   32.2055    6.9727 C.3       9 UNK        -0.1959 
     57 C          32.4584   30.9937    6.4132 C.2       9 UNK         0.5033 
     58 O          32.6375   30.1209    7.2635 O.2       9 UNK        -0.5390 
     59 N          33.4511   31.6984    5.8525 N.am      10 UNK        -0.4215 
     60 CA         34.8781   31.4589    6.0769 C.3       10 UNK         0.0240 
     61 CB         35.6618   32.7245    5.6902 C.3       10 UNK        -0.1982 
     62 C          35.4258   30.2362    5.3138 C.2       10 UNK         0.4970 
     63 O          36.4855   29.7329    5.6895 O.2       10 UNK        -0.4916 
     64 N          34.7313   29.7940    4.2566 N.am      11 UNK        -0.4279 
     65 CA         35.0883   28.6165    3.4564 C.3       11 UNK         0.1003 
     66 C          34.7160   27.3000    4.1945 C.2       11 UNK         0.5709 
     67 N          35.5096   26.2499    4.0337 N.am      11 UNK        -0.7358 
     68 O          33.7111   27.2166    4.8978 O.2       11 UNK        -0.4999 
     69 C69        34.4538   28.7299    2.0456 C.3       12 UNK        -0.0954 
     70 S70        35.1095   27.5489    0.8180 S.3       12 UNK        -0.2268 
     71 C71        33.5726   26.8916    0.0926 C.3       12 UNK         0.0203 
     72 H72        28.7206   20.0052    4.1256 H         1 UNK         0.0888 
     73 H73        29.3040   18.7150    3.0705 H         1 UNK         0.0888 
     74 H74        30.3155   20.1271    3.3804 H         1 UNK         0.0888 
     75 H75        30.3130   21.5962    1.6899 H         1 UNK         0.3017 
     76 H76        28.3805   21.5177   -0.4485 H         1 UNK         0.0873 
     77 H77        29.7918   23.0655   -1.5726 H         1 UNK         0.0745 
     78 H78        30.5420   23.6469   -0.1421 H         1 UNK         0.0745 
     79 H79        33.7708   21.7276    0.0289 H         1 UNK         0.0705 
     80 H80        32.6390   21.1399    1.2108 H         1 UNK         0.0705 
     81 H81        33.7287   24.2481   -0.5845 H         1 UNK         0.1334 
     82 H82        32.1474   26.8658    2.4303 H         1 UNK         0.1417 
     83 H83        31.6618   22.6398    2.8149 H         1 UNK         0.1562 
     84 H84        31.2294   25.9682    4.4624 H         1 UNK         0.0748 
     85 H85        31.4661   24.2781    4.8167 H         1 UNK         0.0748 
     86 H86        28.7319   26.4889    5.1858 H         1 UNK         0.0940 
     87 H87        27.4462   26.0609    4.0963 H         1 UNK         0.0940 
     88 H88        29.9593   27.6838    3.4380 H         1 UNK         0.0703 
     89 H89        28.5166   26.1881    1.5204 H         1 UNK         0.3081 
     90 H90        28.8755   28.4713   -1.2356 H         1 UNK         0.0719 
     91 H91        30.9709   27.2959   -1.3697 H         1 UNK         0.0809 
     92 H92        29.7991   26.2987   -2.2112 H         1 UNK         0.0809 
     93 H93        30.3274   25.8649   -0.5849 H         1 UNK         0.0809 
     94 H94        27.7061   25.8452   -0.6939 H         1 UNK         0.2990 
     95 H95        24.4107   27.0883   -0.2352 H         1 UNK         0.0690 
     96 H96        23.8832   25.6609   -2.1924 H         1 UNK         0.0788 
     97 H97        25.5766   25.6625   -2.6882 H         1 UNK         0.0788 
     98 H98        24.6431   27.1521   -2.7222 H         1 UNK         0.0788 
     99 H99        25.4411   24.4340   -0.5179 H         1 UNK         0.2993 
    100 H100       26.3444   23.9855    2.9134 H         1 UNK         0.0949 
    101 H101       23.8595   23.6707    2.7501 H         1 UNK         0.0767 
    102 H102       24.0736   22.8026    1.2348 H         1 UNK         0.0767 
    103 H103       24.7253   22.1437    2.7351 H         1 UNK         0.0767 
    104 H104       26.6410   21.9543    1.2632 H         1 UNK         0.3013 
    105 H105       26.5376   27.9389    2.4182 H         1 UNK         0.3121 
    106 H106       25.8216   30.0554    4.1927 H         1 UNK         0.0774 
    107 H107       23.8538   30.2934    2.6778 H         1 UNK         0.0815 
    108 H108       24.6160   29.2431    1.4918 H         1 UNK         0.0815 
    109 H109       24.1485   28.6053    3.0662 H         1 UNK         0.0815 
    110 H110       27.1296   30.0793    0.8542 H         1 UNK         0.2987 
    111 H111       26.9261   32.9093    0.4824 H         1 UNK         0.0949 
    112 H112       27.0324   31.2984   -1.4097 H         1 UNK         0.0806 
    113 H113       28.3278   32.4794   -1.5250 H         1 UNK         0.0806 
    114 H114       28.6782   30.8521   -0.9620 H         1 UNK         0.0806 
    115 H115       29.6583   30.8090    1.5355 H         1 UNK         0.3010 
    116 H116       31.1720   33.2225    2.4501 H         1 UNK         0.0829 
    117 H117       32.1157   32.5123    0.2705 H         1 UNK         0.0813 
    118 H118       33.2266   32.0851    1.5637 H         1 UNK         0.0813 
    119 H119       32.2254   30.8425    0.8219 H         1 UNK         0.0813 
    120 H120       30.4578   32.8195    4.5676 H         1 UNK         0.3038 
    121 H121       30.4919   30.3547    5.9043 H         1 UNK         0.0769 
    122 H122       30.7705   33.1910    7.0391 H         1 UNK         0.0811 
    123 H123       30.3398   31.7624    7.9692 H         1 UNK         0.0811 
    124 H124       29.2570   32.3414    6.7159 H         1 UNK         0.0811 
    125 H125       33.2068   32.4103    5.1800 H         1 UNK         0.3204 
    126 H126       35.0346   31.2747    7.1421 H         1 UNK         0.0748 
    127 H127       36.7289   32.5957    5.8779 H         1 UNK         0.0771 
    128 H128       35.5444   32.9664    4.6330 H         1 UNK         0.0771 
    129 H129       35.3355   33.5871    6.2717 H         1 UNK         0.0771 
    130 H130       33.8137   30.1813    4.0634 H         1 UNK         0.2980 
    131 H131       36.1725   28.6302    3.3270 H         1 UNK         0.0545 
    132 H132       36.3168   26.2976    3.4324 H         1 UNK         0.3459 
    133 H133       35.2754   25.3852    4.4940 H         1 UNK         0.3459 
    134 H134       33.3704   28.6478    2.1057 H         1 UNK         0.0616 
    135 H135       34.6437   29.7258    1.6422 H         1 UNK         0.0616 
    136 H136       32.8178   27.6780    0.0521 H         1 UNK         0.0634 
    137 H137       33.7727   26.6143   -0.9433 H         1 UNK         0.0634 
@<TRIPOS>BOND
     1    1    2 1    
     2    1   72 1    
     3    1   73 1    
     4    1   74 1    
     5    2    3 2    
     6    2    4 am   BACKBONE|DICT|INTERRES
     7    4    5 1    
     8    4   75 1    
     9    5    6 1    
    10    5   35 1    
    11    5   76 1    
    12    6    7 1    
    13    6   77 1    
    14    6   78 1    
    15    7    8 1    
    16    8    9 1    
    17    8   79 1    
    18    8   80 1    
    19    9   10 ar   
    20    9   14 ar   
    21   10   11 ar   
    22   10   81 1    
    23   11   12 ar   
    24   11   71 1    
    25   12   13 ar   
    26   12   82 1    
    27   13   14 ar   
    28   13   15 1    
    29   14   83 1    
    30   15   16 1    
    31   15   84 1    
    32   15   85 1    
    33   16   17 1    
    34   17   18 1    
    35   17   86 1    
    36   17   87 1    
    37   18   19 1    
    38   18   37 1    
    39   18   88 1    
    40   19   20 am   BACKBONE|DICT|INTERRES
    41   19   89 1    
    42   20   21 2    
    43   20   22 1    
    44   22   23 1    
    45   22   24 1    
    46   22   90 1    
    47   23   91 1    
    48   23   92 1    
    49   23   93 1    
    50   24   25 am   BACKBONE|DICT|INTERRES
    51   24   94 1    
    52   25   26 2    
    53   25   27 1    
    54   27   28 1    
    55   27   29 1    
    56   27   95 1    
    57   28   96 1    
    58   28   97 1    
    59   28   98 1    
    60   29   30 am   BACKBONE|DICT|INTERRES
    61   29   99 1    
    62   30   31 2    
    63   30   32 1    
    64   32   33 1    
    65   32   34 1    
    66   32  100 1    
    67   33  101 1    
    68   33  102 1    
    69   33  103 1    
    70   34   35 am   BACKBONE|DICT|INTERRES
    71   34  104 1    
    72   35   36 2    
    73   37   38 2    
    74   37   39 am   BACKBONE|DICT|INTERRES
    75   39   40 1    
    76   39  105 1    
    77   40   41 1    
    78   40   42 1    
    79   40  106 1    
    80   41  107 1    
    81   41  108 1    
    82   41  109 1    
    83   42   43 2    
    84   42   44 am   BACKBONE|DICT|INTERRES
    85   44   45 1    
    86   44  110 1    
    87   45   46 1    
    88   45   47 1    
    89   45  111 1    
    90   46  112 1    
    91   46  113 1    
    92   46  114 1    
    93   47   48 2    
    94   47   49 am   BACKBONE|DICT|INTERRES
    95   49   50 1    
    96   49  115 1    
    97   50   51 1    
    98   50   52 1    
    99   50  116 1    
   100   51  117 1    
   101   51  118 1    
   102   51  119 1    
   103   52   53 2    
   104   52   54 am   BACKBONE|DICT|INTERRES
   105   54   55 1    
   106   54  120 1    
   107   55   56 1    
   108   55   57 1    
   109   55  121 1    
   110   56  122 1    
   111   56  123 1    
   112   56  124 1    
   113   57   58 2    
   114   57   59 am   BACKBONE|DICT|INTERRES
   115   59   60 1    
   116   59  125 1    
   117   60   61 1    
   118   60   62 1    
   119   60  126 1    
   120   61  127 1    
   121   61  128 1    
   122   61  129 1    
   123   62   63 2    
   124   62   64 am   BACKBONE|DICT|INTERRES
   125   64   65 1    
   126   64  130 1    
   127   65   66 1    
   128   65   69 1    
   129   65  131 1    
   130   66   67 am   BACKBONE|DICT|INTERRES
   131   66   68 2    
   132   67  132 1    
   133   67  133 1    
   134   69   70 1    
   135   69  134 1    
   136   69  135 1    
   137   70   71 1    
   138   71  136 1    
   139   71  137 1    
@<TRIPOS>SUBSTRUCTURE
     1 UNK         1 GROUP             0       ****    0 ROOT    
