@<TRIPOS>MOLECULE
3R136
137   139    1
SMALL
USER_CHARGES


@<TRIPOS>ATOM
      1 CA         33.2520   28.4061   -3.5407 C.3       0 UNK        -0.1979 
      2 C          31.9413   28.4208   -2.7685 C.2       0 UNK         0.4864 
      3 O          31.1246   29.3205   -2.9696 O.2       0 UNK        -0.5359 
      4 N          31.7409   27.4383   -1.8806 N.am      1 UNK        -0.4318 
      5 CA         30.5458   27.2916   -1.0426 C.3       1 UNK         0.0824 
      6 C6         30.7296   26.2196    0.0648 C.3       12 UNK        -0.0944 
      7 S7         32.2477   26.4515    1.0476 S.3       12 UNK        -0.2672 
      8 C8         32.4029   24.8196    1.8446 C.3       12 UNK         0.0333 
      9 C9         31.5165   24.6908    3.0766 C.ar      12 UNK        -0.0807 
     10 C10        31.7518   25.5142    4.1797 C.ar      12 UNK        -0.0894 
     11 C11        30.9864   25.3956    5.3395 C.ar      12 UNK        -0.0804 
     12 C12        29.9811   24.4274    5.4001 C.ar      12 UNK        -0.0824 
     13 C13        29.7314   23.5909    4.3052 C.ar      12 UNK        -0.0762 
     14 C14        30.4990   23.7312    3.1419 C.ar      12 UNK        -0.0782 
     15 C15        28.6604   22.5089    4.4047 C.3       12 UNK         0.0230 
     16 S16        27.1683   22.8654    3.4171 S.3       12 UNK        -0.2608 
     17 C17        26.6169   24.4695    4.0912 C.3       12 UNK        -0.0989 
     18 CA         26.5366   25.5303    2.9580 C.3       5 UNK         0.0716 
     19 N          25.4002   25.3415    2.0462 N.am      5 UNK        -0.4135 
     20 C          24.0963   25.4209    2.3582 C.2       4 UNK         0.5031 
     21 O          23.6832   25.6288    3.4998 O.2       4 UNK        -0.5229 
     22 CA         23.0628   25.2867    1.2181 C.3       4 UNK         0.0329 
     23 CB         22.2076   26.5621    1.1130 C.3       4 UNK        -0.2001 
     24 N          23.6573   25.0208   -0.0933 N.am      4 UNK        -0.4303 
     25 C          24.1114   23.8338   -0.5182 C.2       3 UNK         0.5044 
     26 O          23.9907   22.7866    0.1172 O.2       3 UNK        -0.5152 
     27 CA         24.8605   23.8214   -1.8670 C.3       3 UNK         0.0319 
     28 CB         23.9256   23.3566   -2.9952 C.3       3 UNK        -0.2001 
     29 N          25.4641   25.1106   -2.2391 N.am      3 UNK        -0.4354 
     30 C          26.3947   25.7588   -1.5240 C.2       2 UNK         0.4964 
     31 O          26.8303   25.3519   -0.4441 O.2       2 UNK        -0.5047 
     32 CA         26.8450   27.1274   -2.0603 C.3       2 UNK         0.0288 
     33 CB         25.8162   28.2053   -1.6827 C.3       2 UNK        -0.2113 
     34 N          28.1479   27.5001   -1.5069 N.am      2 UNK        -0.4145 
     35 C          29.3057   26.9498   -1.8912 C.2       1 UNK         0.5006 
     36 O          29.4113   26.1658   -2.8398 O.2       1 UNK        -0.5103 
     37 C          26.6664   26.9932    3.4352 C.2       5 UNK         0.5055 
     38 O          27.1310   27.2499    4.5475 O.2       5 UNK        -0.5220 
     39 N          26.3124   27.9365    2.5500 N.am      6 UNK        -0.4450 
     40 CA         26.7330   29.3322    2.6334 C.3       6 UNK         0.0367 
     41 CB         25.7202   30.2330    1.9063 C.3       6 UNK        -0.1929 
     42 C          28.1257   29.4044    1.9947 C.2       6 UNK         0.5070 
     43 O          28.2484   29.1858    0.7865 O.2       6 UNK        -0.5237 
     44 N          29.1501   29.6075    2.8265 N.am      7 UNK        -0.4739 
     45 CA         30.5522   29.5603    2.4197 C.3       7 UNK         0.0276 
     46 CB         31.4102   29.2095    3.6430 C.3       7 UNK        -0.1927 
     47 C          31.0205   30.8798    1.7934 C.2       7 UNK         0.5013 
     48 O          30.5123   31.9460    2.1487 O.2       7 UNK        -0.5193 
     49 N          32.0314   30.7817    0.9244 N.am      8 UNK        -0.4253 
     50 CA         32.7446   31.9151    0.3407 C.3       8 UNK         0.0242 
     51 CB         32.0092   32.3998   -0.9252 C.3       8 UNK        -0.2000 
     52 C          34.1949   31.4805    0.0650 C.2       8 UNK         0.4948 
     53 O          34.5274   31.2033   -1.0866 O.2       8 UNK        -0.5275 
     54 N          35.0580   31.3622    1.0828 N.am      9 UNK        -0.4246 
     55 CA         34.8260   31.5469    2.5156 C.3       9 UNK         0.0261 
     56 CB         35.3511   32.9245    2.9518 C.3       9 UNK        -0.1959 
     57 C          35.5569   30.4165    3.2488 C.2       9 UNK         0.5033 
     58 O          36.6338   30.0071    2.8062 O.2       9 UNK        -0.5390 
     59 N          34.9602   29.9334    4.3420 N.am      10 UNK        -0.4215 
     60 CA         35.4055   28.7968    5.1444 C.3       10 UNK         0.0240 
     61 CB         35.3119   27.4893    4.3275 C.3       10 UNK        -0.1982 
     62 C          34.5477   28.7327    6.4168 C.2       10 UNK         0.4970 
     63 O          33.5557   29.4598    6.5182 O.2       10 UNK        -0.4916 
     64 N          34.9571   27.8715    7.3566 N.am      11 UNK        -0.4279 
     65 CA         34.3451   27.6563    8.6835 C.3       11 UNK         0.1003 
     66 C          34.5450   28.8330    9.6885 C.2       11 UNK         0.5709 
     67 N          35.4354   29.7837    9.4293 N.am      11 UNK        -0.7358 
     68 O          33.9094   28.8718   10.7399 O.2       11 UNK        -0.4999 
     69 C69        32.8661   27.1661    8.6354 C.3       12 UNK        -0.0954 
     70 S70        32.6071   25.7144    7.5586 S.3       12 UNK        -0.2268 
     71 C71        31.2495   26.3235    6.5148 C.3       12 UNK         0.0203 
     72 H72        33.8686   27.5455   -3.2816 H         1 UNK         0.0888 
     73 H73        33.0568   28.3739   -4.6123 H         1 UNK         0.0888 
     74 H74        33.8222   29.3093   -3.3233 H         1 UNK         0.0888 
     75 H75        32.4399   26.7191   -1.7636 H         1 UNK         0.3017 
     76 H76        30.3725   28.2584   -0.5675 H         1 UNK         0.0873 
     77 H77        29.8778   26.2286    0.7487 H         1 UNK         0.0745 
     78 H78        30.7568   25.2210   -0.3766 H         1 UNK         0.0745 
     79 H79        32.1934   24.0301    1.1215 H         1 UNK         0.0705 
     80 H80        33.4415   24.6826    2.1492 H         1 UNK         0.0705 
     81 H81        32.5362   26.2533    4.1361 H         1 UNK         0.1334 
     82 H82        29.3953   24.3243    6.3034 H         1 UNK         0.1417 
     83 H83        30.3130   23.0808    2.2980 H         1 UNK         0.1562 
     84 H84        28.3642   22.3557    5.4437 H         1 UNK         0.0748 
     85 H85        29.0810   21.5594    4.0703 H         1 UNK         0.0748 
     86 H86        27.3056   24.7749    4.8778 H         1 UNK         0.0940 
     87 H87        25.6557   24.3389    4.5887 H         1 UNK         0.0940 
     88 H88        27.4237   25.3970    2.3355 H         1 UNK         0.0703 
     89 H89        25.6663   25.1692    1.0809 H         1 UNK         0.3081 
     90 H90        22.4047   24.4546    1.4772 H         1 UNK         0.0719 
     91 H91        22.8133   27.4373    0.8739 H         1 UNK         0.0809 
     92 H92        21.4400   26.4637    0.3450 H         1 UNK         0.0809 
     93 H93        21.6939   26.7696    2.0528 H         1 UNK         0.0809 
     94 H94        23.7859   25.8168   -0.7002 H         1 UNK         0.2990 
     95 H95        25.6719   23.0962   -1.7752 H         1 UNK         0.0690 
     96 H96        24.4635   23.2446   -3.9369 H         1 UNK         0.0788 
     97 H97        23.1062   24.0585   -3.1562 H         1 UNK         0.0788 
     98 H98        23.4828   22.3872   -2.7613 H         1 UNK         0.0788 
     99 H99        25.1440   25.5217   -3.1050 H         1 UNK         0.2993 
    100 H100       26.9272   27.0751   -3.1483 H         1 UNK         0.0949 
    101 H101       24.8587   28.0256   -2.1731 H         1 UNK         0.0767 
    102 H102       25.6339   28.2244   -0.6088 H         1 UNK         0.0767 
    103 H103       26.1512   29.1983   -1.9837 H         1 UNK         0.0767 
    104 H104       28.1430   28.1177   -0.6958 H         1 UNK         0.3013 
    105 H105       25.9769   27.6295    1.6498 H         1 UNK         0.3121 
    106 H106       26.7830   29.6486    3.6778 H         1 UNK         0.0774 
    107 H107       24.7192   30.1204    2.3230 H         1 UNK         0.0815 
    108 H108       25.9983   31.2825    2.0093 H         1 UNK         0.0815 
    109 H109       25.6653   30.0200    0.8394 H         1 UNK         0.0815 
    110 H110       28.9659   29.7879    3.8029 H         1 UNK         0.2987 
    111 H111       30.6664   28.7640    1.6852 H         1 UNK         0.0949 
    112 H112       31.4009   30.0018    4.3929 H         1 UNK         0.0806 
    113 H113       32.4464   29.0342    3.3548 H         1 UNK         0.0806 
    114 H114       31.0503   28.2972    4.1144 H         1 UNK         0.0806 
    115 H115       32.4104   29.8706    0.7031 H         1 UNK         0.3010 
    116 H116       32.7747   32.7467    1.0478 H         1 UNK         0.0829 
    117 H117       31.0082   32.7604   -0.6886 H         1 UNK         0.0813 
    118 H118       32.5472   33.2222   -1.3982 H         1 UNK         0.0813 
    119 H119       31.9100   31.6046   -1.6646 H         1 UNK         0.0813 
    120 H120       35.9798   30.9944    0.8834 H         1 UNK         0.3038 
    121 H121       33.7678   31.4800    2.7638 H         1 UNK         0.0769 
    122 H122       36.4183   33.0306    2.7517 H         1 UNK         0.0811 
    123 H123       35.2023   33.0795    4.0212 H         1 UNK         0.0811 
    124 H124       34.8327   33.7305    2.4324 H         1 UNK         0.0811 
    125 H125       34.1114   30.3586    4.6985 H         1 UNK         0.3204 
    126 H126       36.4407   28.9651    5.4482 H         1 UNK         0.0748 
    127 H127       36.0996   27.4388    3.5758 H         1 UNK         0.0771 
    128 H128       35.4161   26.6024    4.9535 H         1 UNK         0.0771 
    129 H129       34.3610   27.4147    3.8031 H         1 UNK         0.0771 
    130 H130       35.7875   27.3253    7.1789 H         1 UNK         0.2980 
    131 H131       34.9234   26.8411    9.1192 H         1 UNK         0.0545 
    132 H132       35.9788   29.7614    8.5821 H         1 UNK         0.3459 
    133 H133       35.5633   30.5318   10.0925 H         1 UNK         0.3459 
    134 H134       32.2099   27.9809    8.3259 H         1 UNK         0.0616 
    135 H135       32.5313   26.8811    9.6342 H         1 UNK         0.0616 
    136 H136       31.5025   27.3185    6.1480 H         1 UNK         0.0634 
    137 H137       30.3498   26.4371    7.1215 H         1 UNK         0.0634 
@<TRIPOS>BOND
     1    1    2 1    
     2    1   72 1    
     3    1   73 1    
     4    1   74 1    
     5    2    3 2    
     6    2    4 am   BACKBONE|DICT|INTERRES
     7    4    5 1    
     8    4   75 1    
     9    5    6 1    
    10    5   35 1    
    11    5   76 1    
    12    6    7 1    
    13    6   77 1    
    14    6   78 1    
    15    7    8 1    
    16    8    9 1    
    17    8   79 1    
    18    8   80 1    
    19    9   10 ar   
    20    9   14 ar   
    21   10   11 ar   
    22   10   81 1    
    23   11   12 ar   
    24   11   71 1    
    25   12   13 ar   
    26   12   82 1    
    27   13   14 ar   
    28   13   15 1    
    29   14   83 1    
    30   15   16 1    
    31   15   84 1    
    32   15   85 1    
    33   16   17 1    
    34   17   18 1    
    35   17   86 1    
    36   17   87 1    
    37   18   19 1    
    38   18   37 1    
    39   18   88 1    
    40   19   20 am   BACKBONE|DICT|INTERRES
    41   19   89 1    
    42   20   21 2    
    43   20   22 1    
    44   22   23 1    
    45   22   24 1    
    46   22   90 1    
    47   23   91 1    
    48   23   92 1    
    49   23   93 1    
    50   24   25 am   BACKBONE|DICT|INTERRES
    51   24   94 1    
    52   25   26 2    
    53   25   27 1    
    54   27   28 1    
    55   27   29 1    
    56   27   95 1    
    57   28   96 1    
    58   28   97 1    
    59   28   98 1    
    60   29   30 am   BACKBONE|DICT|INTERRES
    61   29   99 1    
    62   30   31 2    
    63   30   32 1    
    64   32   33 1    
    65   32   34 1    
    66   32  100 1    
    67   33  101 1    
    68   33  102 1    
    69   33  103 1    
    70   34   35 am   BACKBONE|DICT|INTERRES
    71   34  104 1    
    72   35   36 2    
    73   37   38 2    
    74   37   39 am   BACKBONE|DICT|INTERRES
    75   39   40 1    
    76   39  105 1    
    77   40   41 1    
    78   40   42 1    
    79   40  106 1    
    80   41  107 1    
    81   41  108 1    
    82   41  109 1    
    83   42   43 2    
    84   42   44 am   BACKBONE|DICT|INTERRES
    85   44   45 1    
    86   44  110 1    
    87   45   46 1    
    88   45   47 1    
    89   45  111 1    
    90   46  112 1    
    91   46  113 1    
    92   46  114 1    
    93   47   48 2    
    94   47   49 am   BACKBONE|DICT|INTERRES
    95   49   50 1    
    96   49  115 1    
    97   50   51 1    
    98   50   52 1    
    99   50  116 1    
   100   51  117 1    
   101   51  118 1    
   102   51  119 1    
   103   52   53 2    
   104   52   54 am   BACKBONE|DICT|INTERRES
   105   54   55 1    
   106   54  120 1    
   107   55   56 1    
   108   55   57 1    
   109   55  121 1    
   110   56  122 1    
   111   56  123 1    
   112   56  124 1    
   113   57   58 2    
   114   57   59 am   BACKBONE|DICT|INTERRES
   115   59   60 1    
   116   59  125 1    
   117   60   61 1    
   118   60   62 1    
   119   60  126 1    
   120   61  127 1    
   121   61  128 1    
   122   61  129 1    
   123   62   63 2    
   124   62   64 am   BACKBONE|DICT|INTERRES
   125   64   65 1    
   126   64  130 1    
   127   65   66 1    
   128   65   69 1    
   129   65  131 1    
   130   66   67 am   BACKBONE|DICT|INTERRES
   131   66   68 2    
   132   67  132 1    
   133   67  133 1    
   134   69   70 1    
   135   69  134 1    
   136   69  135 1    
   137   70   71 1    
   138   71  136 1    
   139   71  137 1    
@<TRIPOS>SUBSTRUCTURE
     1 UNK         1 GROUP             0       ****    0 ROOT    
