@<TRIPOS>MOLECULE
3R136
137   139    1
SMALL
USER_CHARGES


@<TRIPOS>ATOM
      1 CA         27.4939   21.6789   -1.3610 C.3       0 UNK        -0.1979 
      2 C          27.9764   22.7001   -0.3431 C.2       0 UNK         0.4864 
      3 O          27.2998   23.7065   -0.1225 O.2       0 UNK        -0.5359 
      4 N          29.1354   22.4502    0.2761 N.am      1 UNK        -0.4318 
      5 CA         29.7613   23.2977    1.2960 C.3       1 UNK         0.0824 
      6 C6         31.1637   22.7680    1.6919 C.3       12 UNK        -0.0944 
      7 S7         32.2864   22.6151    0.2588 S.3       12 UNK        -0.2672 
      8 C8         33.4669   23.9700    0.5462 C.3       12 UNK         0.0333 
      9 C9         32.7946   25.3330    0.4831 C.ar      12 UNK        -0.0807 
     10 C10        32.5670   26.0581    1.6541 C.ar      12 UNK        -0.0894 
     11 C11        31.9460   27.3082    1.6062 C.ar      12 UNK        -0.0804 
     12 C12        31.5681   27.8440    0.3697 C.ar      12 UNK        -0.0824 
     13 C13        31.7969   27.1297   -0.8133 C.ar      12 UNK        -0.0762 
     14 C14        32.4092   25.8738   -0.7464 C.ar      12 UNK        -0.0782 
     15 C15        31.4320   27.7134   -2.1759 C.3       12 UNK         0.0230 
     16 S16        29.7399   28.3841   -2.2773 S.3       12 UNK        -0.2608 
     17 C17        28.7084   26.9106   -1.9562 C.3       12 UNK        -0.0989 
     18 CA         27.3899   27.2814   -1.2331 C.3       5 UNK         0.0716 
     19 N          26.4443   26.1705   -1.2489 N.am      5 UNK        -0.4135 
     20 C          25.2044   26.2151   -1.7535 C.2       4 UNK         0.5031 
     21 O          24.7275   27.1957   -2.3266 O.2       4 UNK        -0.5229 
     22 CA         24.3375   24.9584   -1.5880 C.3       4 UNK         0.0329 
     23 CB         24.6063   23.9702   -2.7346 C.3       4 UNK        -0.2001 
     24 N          24.6006   24.2983   -0.3095 N.am      4 UNK        -0.4303 
     25 C          23.8380   24.4063    0.7843 C.2       3 UNK         0.5044 
     26 O          22.7897   25.0505    0.8359 O.2       3 UNK        -0.5152 
     27 CA         24.3405   23.6834    2.0384 C.3       3 UNK         0.0319 
     28 CB         24.4065   22.1585    1.8360 C.3       3 UNK        -0.2001 
     29 N          25.6538   24.1941    2.4301 N.am      3 UNK        -0.4354 
     30 C          26.0330   24.4405    3.6914 C.2       2 UNK         0.4964 
     31 O          25.3049   24.2541    4.6686 O.2       2 UNK        -0.5047 
     32 CA         27.4542   25.0005    3.9030 C.3       2 UNK         0.0288 
     33 CB         28.0298   24.6699    5.2988 C.3       2 UNK        -0.2113 
     34 N          28.3888   24.6329    2.8322 N.am      2 UNK        -0.4145 
     35 C          28.8524   23.4102    2.5372 C.2       1 UNK         0.5006 
     36 O          28.5805   22.3900    3.1755 O.2       1 UNK        -0.5103 
     37 C          27.6416   27.6744    0.2305 C.2       5 UNK         0.5055 
     38 O          27.7908   26.7976    1.0850 O.2       5 UNK        -0.5220 
     39 N          27.7233   28.9844    0.4722 N.am      6 UNK        -0.4450 
     40 CA         28.1542   29.6007    1.7175 C.3       6 UNK         0.0367 
     41 CB         26.9429   29.9008    2.6148 C.3       6 UNK        -0.1929 
     42 C          28.9173   30.8737    1.3385 C.2       6 UNK         0.5070 
     43 O          28.5533   31.5308    0.3598 O.2       6 UNK        -0.5237 
     44 N          29.9662   31.1860    2.1006 N.am      7 UNK        -0.4739 
     45 CA         30.9166   32.2698    1.8689 C.3       7 UNK         0.0276 
     46 CB         31.7954   31.9611    0.6384 C.3       7 UNK        -0.1927 
     47 C          31.7899   32.4028    3.1208 C.2       7 UNK         0.5013 
     48 O          31.9049   31.4414    3.8837 O.2       7 UNK        -0.5193 
     49 N          32.4267   33.5685    3.2873 N.am      8 UNK        -0.4253 
     50 CA         33.2796   33.9102    4.4344 C.3       8 UNK         0.0242 
     51 CB         33.5677   35.4213    4.4028 C.3       8 UNK        -0.2000 
     52 C          34.5962   33.1114    4.5386 C.2       8 UNK         0.4948 
     53 O          35.2724   33.2099    5.5634 O.2       8 UNK        -0.5275 
     54 N          34.9489   32.3501    3.4924 N.am      9 UNK        -0.4246 
     55 CA         36.1419   31.5005    3.4220 C.3       9 UNK         0.0261 
     56 CB         36.2975   30.9775    1.9841 C.3       9 UNK        -0.1959 
     57 C          36.1407   30.3248    4.4187 C.2       9 UNK         0.5033 
     58 O          37.2186   29.8681    4.8030 O.2       9 UNK        -0.5390 
     59 N          34.9505   29.8598    4.8148 N.am      10 UNK        -0.4215 
     60 CA         34.7204   28.7989    5.7935 C.3       10 UNK         0.0240 
     61 CB         35.0911   27.4119    5.2137 C.3       10 UNK        -0.1982 
     62 C          33.2651   28.9306    6.2673 C.2       10 UNK         0.4970 
     63 O          32.8353   30.0523    6.5394 O.2       10 UNK        -0.4916 
     64 N          32.5309   27.8108    6.3350 N.am      11 UNK        -0.4279 
     65 CA         31.0757   27.7479    6.5720 C.3       11 UNK         0.1003 
     66 C          30.5987   28.3065    7.9497 C.2       11 UNK         0.5709 
     67 N          31.4593   28.3852    8.9580 N.am      11 UNK        -0.7358 
     68 O          29.4280   28.6355    8.1271 O.2       11 UNK        -0.4999 
     69 C69        30.2700   28.3044    5.3592 C.3       12 UNK        -0.0954 
     70 S70        30.4237   27.2305    3.8943 S.3       12 UNK        -0.2268 
     71 C71        31.6918   28.0669    2.8980 C.3       12 UNK         0.0203 
     72 H72        27.5709   22.0893   -2.3671 H         1 UNK         0.0888 
     73 H73        28.0793   20.7605   -1.3227 H         1 UNK         0.0888 
     74 H74        26.4516   21.4222   -1.1743 H         1 UNK         0.0888 
     75 H75        29.6448   21.6076    0.0530 H         1 UNK         0.3017 
     76 H76        29.8841   24.2938    0.8632 H         1 UNK         0.0873 
     77 H77        31.0838   21.7820    2.1541 H         1 UNK         0.0745 
     78 H78        31.6184   23.4135    2.4452 H         1 UNK         0.0745 
     79 H79        34.2523   23.9197   -0.2093 H         1 UNK         0.0705 
     80 H80        33.9601   23.8213    1.5081 H         1 UNK         0.0705 
     81 H81        32.8612   25.6464    2.6100 H         1 UNK         0.1334 
     82 H82        31.0962   28.8155    0.3240 H         1 UNK         0.1417 
     83 H83        32.5940   25.3123   -1.6524 H         1 UNK         0.1562 
     84 H84        31.5501   26.9660   -2.9621 H         1 UNK         0.0748 
     85 H85        32.1358   28.5138   -2.4074 H         1 UNK         0.0748 
     86 H86        29.2669   26.1627   -1.3890 H         1 UNK         0.0940 
     87 H87        28.4868   26.4513   -2.9208 H         1 UNK         0.0940 
     88 H88        26.9505   28.1398   -1.7461 H         1 UNK         0.0703 
     89 H89        26.7566   25.3321   -0.7635 H         1 UNK         0.3081 
     90 H90        23.2901   25.2629   -1.6440 H         1 UNK         0.0719 
     91 H91        24.3788   24.4239   -3.7002 H         1 UNK         0.0809 
     92 H92        25.6492   23.6538   -2.7616 H         1 UNK         0.0809 
     93 H93        23.9870   23.0779   -2.6420 H         1 UNK         0.0809 
     94 H94        25.4871   23.8057   -0.2367 H         1 UNK         0.2990 
     95 H95        23.6132   23.8870    2.8275 H         1 UNK         0.0690 
     96 H96        24.6480   21.6504    2.7698 H         1 UNK         0.0788 
     97 H97        25.1611   21.8751    1.1019 H         1 UNK         0.0788 
     98 H98        23.4483   21.7668    1.4921 H         1 UNK         0.0788 
     99 H99        26.3134   24.3804    1.6829 H         1 UNK         0.2993 
    100 H100       27.3553   26.0855    3.8412 H         1 UNK         0.0949 
    101 H101       28.0494   23.5960    5.4859 H         1 UNK         0.0767 
    102 H102       29.0452   25.0476    5.4129 H         1 UNK         0.0767 
    103 H103       27.4272   25.1244    6.0858 H         1 UNK         0.0767 
    104 H104       28.5888   25.3963    2.1894 H         1 UNK         0.3013 
    105 H105       27.6537   29.6401   -0.2975 H         1 UNK         0.3121 
    106 H106       28.8324   28.9246    2.2379 H         1 UNK         0.0774 
    107 H107       27.2573   30.3644    3.5506 H         1 UNK         0.0815 
    108 H108       26.2409   30.5802    2.1300 H         1 UNK         0.0815 
    109 H109       26.4055   28.9872    2.8695 H         1 UNK         0.0815 
    110 H110       30.1801   30.6406    2.9277 H         1 UNK         0.2987 
    111 H111       30.3652   33.2001    1.7158 H         1 UNK         0.0949 
    112 H112       31.1999   31.8659   -0.2696 H         1 UNK         0.0806 
    113 H113       32.5184   32.7579    0.4596 H         1 UNK         0.0806 
    114 H114       32.3561   31.0341    0.7664 H         1 UNK         0.0806 
    115 H115       32.2940   34.2953    2.5980 H         1 UNK         0.3010 
    116 H116       32.7121   33.6913    5.3417 H         1 UNK         0.0829 
    117 H117       32.6460   36.0032    4.4284 H         1 UNK         0.0813 
    118 H118       34.1617   35.7261    5.2658 H         1 UNK         0.0813 
    119 H119       34.1231   35.7074    3.5087 H         1 UNK         0.0813 
    120 H120       34.3365   32.3410    2.6908 H         1 UNK         0.3038 
    121 H121       37.0072   32.1243    3.6561 H         1 UNK         0.0769 
    122 H122       37.1934   30.3624    1.8879 H         1 UNK         0.0811 
    123 H123       36.3919   31.7961    1.2704 H         1 UNK         0.0811 
    124 H124       35.4477   30.3632    1.6830 H         1 UNK         0.0811 
    125 H125       34.1141   30.3506    4.5174 H         1 UNK         0.3204 
    126 H126       35.3509   28.9924    6.6637 H         1 UNK         0.0748 
    127 H127       34.9561   26.6214    5.9528 H         1 UNK         0.0771 
    128 H128       34.4971   27.1577    4.3362 H         1 UNK         0.0771 
    129 H129       36.1388   27.3758    4.9154 H         1 UNK         0.0771 
    130 H130       32.9745   26.9301    6.1212 H         1 UNK         0.2980 
    131 H131       30.8450   26.6844    6.6442 H         1 UNK         0.0545 
    132 H132       32.4206   28.1132    8.8314 H         1 UNK         0.3459 
    133 H133       31.1447   28.7348    9.8492 H         1 UNK         0.3459 
    134 H134       30.5690   29.3245    5.1151 H         1 UNK         0.0616 
    135 H135       29.2038   28.3497    5.5860 H         1 UNK         0.0616 
    136 H136       32.6181   28.1424    3.4634 H         1 UNK         0.0634 
    137 H137       31.3804   29.0855    2.6880 H         1 UNK         0.0634 
@<TRIPOS>BOND
     1    1    2 1    
     2    1   72 1    
     3    1   73 1    
     4    1   74 1    
     5    2    3 2    
     6    2    4 am   BACKBONE|DICT|INTERRES
     7    4    5 1    
     8    4   75 1    
     9    5    6 1    
    10    5   35 1    
    11    5   76 1    
    12    6    7 1    
    13    6   77 1    
    14    6   78 1    
    15    7    8 1    
    16    8    9 1    
    17    8   79 1    
    18    8   80 1    
    19    9   10 ar   
    20    9   14 ar   
    21   10   11 ar   
    22   10   81 1    
    23   11   12 ar   
    24   11   71 1    
    25   12   13 ar   
    26   12   82 1    
    27   13   14 ar   
    28   13   15 1    
    29   14   83 1    
    30   15   16 1    
    31   15   84 1    
    32   15   85 1    
    33   16   17 1    
    34   17   18 1    
    35   17   86 1    
    36   17   87 1    
    37   18   19 1    
    38   18   37 1    
    39   18   88 1    
    40   19   20 am   BACKBONE|DICT|INTERRES
    41   19   89 1    
    42   20   21 2    
    43   20   22 1    
    44   22   23 1    
    45   22   24 1    
    46   22   90 1    
    47   23   91 1    
    48   23   92 1    
    49   23   93 1    
    50   24   25 am   BACKBONE|DICT|INTERRES
    51   24   94 1    
    52   25   26 2    
    53   25   27 1    
    54   27   28 1    
    55   27   29 1    
    56   27   95 1    
    57   28   96 1    
    58   28   97 1    
    59   28   98 1    
    60   29   30 am   BACKBONE|DICT|INTERRES
    61   29   99 1    
    62   30   31 2    
    63   30   32 1    
    64   32   33 1    
    65   32   34 1    
    66   32  100 1    
    67   33  101 1    
    68   33  102 1    
    69   33  103 1    
    70   34   35 am   BACKBONE|DICT|INTERRES
    71   34  104 1    
    72   35   36 2    
    73   37   38 2    
    74   37   39 am   BACKBONE|DICT|INTERRES
    75   39   40 1    
    76   39  105 1    
    77   40   41 1    
    78   40   42 1    
    79   40  106 1    
    80   41  107 1    
    81   41  108 1    
    82   41  109 1    
    83   42   43 2    
    84   42   44 am   BACKBONE|DICT|INTERRES
    85   44   45 1    
    86   44  110 1    
    87   45   46 1    
    88   45   47 1    
    89   45  111 1    
    90   46  112 1    
    91   46  113 1    
    92   46  114 1    
    93   47   48 2    
    94   47   49 am   BACKBONE|DICT|INTERRES
    95   49   50 1    
    96   49  115 1    
    97   50   51 1    
    98   50   52 1    
    99   50  116 1    
   100   51  117 1    
   101   51  118 1    
   102   51  119 1    
   103   52   53 2    
   104   52   54 am   BACKBONE|DICT|INTERRES
   105   54   55 1    
   106   54  120 1    
   107   55   56 1    
   108   55   57 1    
   109   55  121 1    
   110   56  122 1    
   111   56  123 1    
   112   56  124 1    
   113   57   58 2    
   114   57   59 am   BACKBONE|DICT|INTERRES
   115   59   60 1    
   116   59  125 1    
   117   60   61 1    
   118   60   62 1    
   119   60  126 1    
   120   61  127 1    
   121   61  128 1    
   122   61  129 1    
   123   62   63 2    
   124   62   64 am   BACKBONE|DICT|INTERRES
   125   64   65 1    
   126   64  130 1    
   127   65   66 1    
   128   65   69 1    
   129   65  131 1    
   130   66   67 am   BACKBONE|DICT|INTERRES
   131   66   68 2    
   132   67  132 1    
   133   67  133 1    
   134   69   70 1    
   135   69  134 1    
   136   69  135 1    
   137   70   71 1    
   138   71  136 1    
   139   71  137 1    
@<TRIPOS>SUBSTRUCTURE
     1 UNK         1 GROUP             0       ****    0 ROOT    
