@<TRIPOS>MOLECULE
3R136
137   139    1
SMALL
USER_CHARGES


@<TRIPOS>ATOM
      1 CA         26.8073   23.5384   -1.9714 C.3       0 UNK        -0.1979 
      2 C          27.4042   23.7365   -0.5869 C.2       0 UNK         0.4864 
      3 O          27.3047   24.8356   -0.0315 O.2       0 UNK        -0.5359 
      4 N          28.0341   22.6881   -0.0393 N.am      1 UNK        -0.4318 
      5 CA         28.6151   22.6531    1.3063 C.3       1 UNK         0.0824 
      6 C6         29.4035   21.3434    1.5761 C.3       12 UNK        -0.0944 
      7 S7         30.6804   20.9715    0.3260 S.3       12 UNK        -0.2672 
      8 C8         32.2144   21.4581    1.1802 C.3       12 UNK         0.0333 
      9 C9         32.3837   22.9690    1.2017 C.ar      12 UNK        -0.0807 
     10 C10        32.2760   23.6851    2.3986 C.ar      12 UNK        -0.0894 
     11 C11        32.4123   25.0778    2.4061 C.ar      12 UNK        -0.0804 
     12 C12        32.6339   25.7490    1.2002 C.ar      12 UNK        -0.0824 
     13 C13        32.7692   25.0428    0.0023 C.ar      12 UNK        -0.0762 
     14 C14        32.6540   23.6509    0.0120 C.ar      12 UNK        -0.0782 
     15 C15        33.0340   25.7920   -1.2975 C.3       12 UNK         0.0230 
     16 S16        31.8055   25.4471   -2.6021 S.3       12 UNK        -0.2608 
     17 C17        30.2143   25.7056   -1.7476 C.3       12 UNK        -0.0989 
     18 CA         29.6410   27.1301   -1.9267 C.3       5 UNK         0.0716 
     19 N          28.2095   27.1511   -1.6410 N.am      5 UNK        -0.4135 
     20 C          27.3473   28.0443   -2.1417 C.2       4 UNK         0.5031 
     21 O          27.6559   28.9092   -2.9626 O.2       4 UNK        -0.5229 
     22 CA         25.8907   27.9541   -1.6604 C.3       4 UNK         0.0329 
     23 CB         25.0615   27.0647   -2.6006 C.3       4 UNK        -0.2001 
     24 N          25.7835   27.4479   -0.2901 N.am      4 UNK        -0.4303 
     25 C          25.9279   28.2121    0.8009 C.2       3 UNK         0.5044 
     26 O          26.1613   29.4201    0.7702 O.2       3 UNK        -0.5152 
     27 CA         25.7766   27.5130    2.1543 C.3       3 UNK         0.0319 
     28 CB         24.3543   26.9601    2.3555 C.3       3 UNK        -0.2001 
     29 N          26.7554   26.4359    2.2982 N.am      3 UNK        -0.4354 
     30 C          27.4699   26.2093    3.4061 C.2       2 UNK         0.4964 
     31 O          27.4049   26.9045    4.4207 O.2       2 UNK        -0.5047 
     32 CA         28.3552   24.9574    3.3949 C.3       2 UNK         0.0288 
     33 CB         29.1577   24.7874    4.6992 C.3       2 UNK        -0.2113 
     34 N          27.4711   23.8027    3.2455 N.am      2 UNK        -0.4145 
     35 C          27.4849   22.8031    2.3550 C.2       1 UNK         0.5006 
     36 O          26.5835   21.9631    2.3509 O.2       1 UNK        -0.5103 
     37 C          30.3419   28.1579   -1.0190 C.2       5 UNK         0.5055 
     38 O          30.2810   28.0142    0.2037 O.2       5 UNK        -0.5220 
     39 N          30.9955   29.1543   -1.6374 N.am      6 UNK        -0.4450 
     40 CA         31.7147   30.2700   -1.0061 C.3       6 UNK         0.0367 
     41 CB         33.0185   29.7676   -0.3431 C.3       6 UNK        -0.1929 
     42 C          30.8081   31.0955   -0.0664 C.2       6 UNK         0.5070 
     43 O          29.6473   31.3362   -0.4049 O.2       6 UNK        -0.5237 
     44 N          31.3468   31.5352    1.0776 N.am      7 UNK        -0.4739 
     45 CA         30.5809   32.1364    2.1686 C.3       7 UNK         0.0276 
     46 CB         31.5240   32.9729    3.0480 C.3       7 UNK        -0.1927 
     47 C          29.9109   31.0301    2.9972 C.2       7 UNK         0.5013 
     48 O          30.5321   29.9902    3.2290 O.2       7 UNK        -0.5193 
     49 N          28.6733   31.2794    3.4452 N.am      8 UNK        -0.4253 
     50 CA         27.8931   30.3438    4.2567 C.3       8 UNK         0.0242 
     51 CB         26.4559   30.8645    4.4146 C.3       8 UNK        -0.2000 
     52 C          28.5472   30.1045    5.6265 C.2       8 UNK         0.4948 
     53 O          28.8825   31.0734    6.3139 O.2       8 UNK        -0.5275 
     54 N          28.7198   28.8246    5.9813 N.am      9 UNK        -0.4246 
     55 CA         29.4071   28.2748    7.1560 C.3       9 UNK         0.0261 
     56 CB         28.6629   28.6283    8.4589 C.3       9 UNK        -0.1959 
     57 C          30.9010   28.6409    7.2411 C.2       9 UNK         0.5033 
     58 O          31.7494   27.7484    7.2284 O.2       9 UNK        -0.5390 
     59 N          31.2005   29.9403    7.3305 N.am      10 UNK        -0.4215 
     60 CA         32.5352   30.5130    7.4958 C.3       10 UNK         0.0240 
     61 CB         32.4046   31.8487    8.2522 C.3       10 UNK        -0.1982 
     62 C          33.2691   30.6616    6.1501 C.2       10 UNK         0.4970 
     63 O          33.6827   31.7668    5.7946 O.2       10 UNK        -0.4916 
     64 N          33.4266   29.5472    5.4272 N.am      11 UNK        -0.4279 
     65 CA         34.1861   29.4686    4.1684 C.3       11 UNK         0.1003 
     66 C          35.7334   29.5624    4.3230 C.2       11 UNK         0.5709 
     67 N          36.2935   29.4537    5.5225 N.am      11 UNK        -0.7358 
     68 O          36.4375   29.7547    3.3345 O.2       11 UNK        -0.4999 
     69 C69        33.7610   28.2520    3.3063 C.3       12 UNK        -0.0954 
     70 S70        33.8836   26.6476    4.1739 S.3       12 UNK        -0.2268 
     71 C71        32.3097   25.8552    3.7131 C.3       12 UNK         0.0203 
     72 H72        25.7228   23.6317   -1.9265 H         1 UNK         0.0888 
     73 H73        27.0457   22.5567   -2.3801 H         1 UNK         0.0888 
     74 H74        27.1890   24.2910   -2.6602 H         1 UNK         0.0888 
     75 H75        28.0857   21.8174   -0.5480 H         1 UNK         0.3017 
     76 H76        29.3321   23.4679    1.3550 H         1 UNK         0.0873 
     77 H77        28.7274   20.4862    1.6004 H         1 UNK         0.0745 
     78 H78        29.8692   21.3823    2.5627 H         1 UNK         0.0745 
     79 H79        32.2270   21.0418    2.1887 H         1 UNK         0.0705 
     80 H80        33.0625   21.0136    0.6573 H         1 UNK         0.0705 
     81 H81        32.0858   23.1578    3.3233 H         1 UNK         0.1334 
     82 H82        32.7074   26.8260    1.1947 H         1 UNK         0.1417 
     83 H83        32.7453   23.0989   -0.9139 H         1 UNK         0.1562 
     84 H84        34.0235   25.5194   -1.6665 H         1 UNK         0.0748 
     85 H85        33.0613   26.8672   -1.1232 H         1 UNK         0.0748 
     86 H86        30.2671   25.4225   -0.6951 H         1 UNK         0.0940 
     87 H87        29.5320   24.9865   -2.2003 H         1 UNK         0.0940 
     88 H88        29.7815   27.4186   -2.9711 H         1 UNK         0.0703 
     89 H89        27.8799   26.4831   -0.9518 H         1 UNK         0.3081 
     90 H90        25.4696   28.9614   -1.6995 H         1 UNK         0.0719 
     91 H91        25.4196   26.0361   -2.6089 H         1 UNK         0.0809 
     92 H92        24.0111   27.0519   -2.3094 H         1 UNK         0.0809 
     93 H93        25.1074   27.4335   -3.6263 H         1 UNK         0.0809 
     94 H94        25.6250   26.4557   -0.1796 H         1 UNK         0.2990 
     95 H95        25.9417   28.2753    2.9173 H         1 UNK         0.0690 
     96 H96        24.2221   26.5806    3.3689 H         1 UNK         0.0788 
     97 H97        24.1291   26.1467    1.6649 H         1 UNK         0.0788 
     98 H98        23.6062   27.7391    2.2021 H         1 UNK         0.0788 
     99 H99        26.9021   25.8325    1.4907 H         1 UNK         0.2993 
    100 H100       29.0503   25.0958    2.5691 H         1 UNK         0.0949 
    101 H101       29.8554   23.9532    4.6270 H         1 UNK         0.0767 
    102 H102       29.7332   25.6833    4.9305 H         1 UNK         0.0767 
    103 H103       28.5046   24.6013    5.5528 H         1 UNK         0.0767 
    104 H104       26.6789   23.8244    3.8720 H         1 UNK         0.3013 
    105 H105       30.9369   29.1992   -2.6453 H         1 UNK         0.3121 
    106 H106       31.9971   30.9454   -1.8150 H         1 UNK         0.0774 
    107 H107       33.6214   29.1959   -1.0481 H         1 UNK         0.0815 
    108 H108       32.8139   29.1294    0.5163 H         1 UNK         0.0815 
    109 H109       33.6419   30.5958   -0.0046 H         1 UNK         0.0815 
    110 H110       32.2914   31.2574    1.2971 H         1 UNK         0.2987 
    111 H111       29.8137   32.7938    1.7526 H         1 UNK         0.0949 
    112 H112       32.3168   32.3633    3.4823 H         1 UNK         0.0806 
    113 H113       31.9918   33.7757    2.4780 H         1 UNK         0.0806 
    114 H114       30.9814   33.4342    3.8743 H         1 UNK         0.0806 
    115 H115       28.2458   32.1716    3.2450 H         1 UNK         0.3010 
    116 H116       27.8604   29.4008    3.7091 H         1 UNK         0.0829 
    117 H117       25.9701   30.9875    3.4461 H         1 UNK         0.0813 
    118 H118       25.8514   30.1638    4.9923 H         1 UNK         0.0813 
    119 H119       26.4282   31.8242    4.9323 H         1 UNK         0.0813 
    120 H120       28.3483   28.1170    5.3469 H         1 UNK         0.3038 
    121 H121       29.3589   27.1907    7.0405 H         1 UNK         0.0769 
    122 H122       28.6333   29.7031    8.6401 H         1 UNK         0.0811 
    123 H123       29.1476   28.1676    9.3206 H         1 UNK         0.0811 
    124 H124       27.6348   28.2669    8.4348 H         1 UNK         0.0811 
    125 H125       30.4291   30.5923    7.1955 H         1 UNK         0.3204 
    126 H126       33.1335   29.8405    8.1142 H         1 UNK         0.0748 
    127 H127       31.9288   31.7090    9.2232 H         1 UNK         0.0771 
    128 H128       33.3834   32.2944    8.4346 H         1 UNK         0.0771 
    129 H129       31.8132   32.5735    7.6909 H         1 UNK         0.0771 
    130 H130       33.0532   28.6757    5.7855 H         1 UNK         0.2980 
    131 H131       33.9137   30.3531    3.5893 H         1 UNK         0.0545 
    132 H132       37.2952   29.5231    5.6072 H         1 UNK         0.3459 
    133 H133       35.7275   29.2853    6.3378 H         1 UNK         0.3459 
    134 H134       32.7317   28.4053    2.9807 H         1 UNK         0.0616 
    135 H135       34.3519   28.1974    2.3903 H         1 UNK         0.0616 
    136 H136       31.5141   26.5983    3.6439 H         1 UNK         0.0634 
    137 H137       32.0365   25.1849    4.5283 H         1 UNK         0.0634 
@<TRIPOS>BOND
     1    1    2 1    
     2    1   72 1    
     3    1   73 1    
     4    1   74 1    
     5    2    3 2    
     6    2    4 am   BACKBONE|DICT|INTERRES
     7    4    5 1    
     8    4   75 1    
     9    5    6 1    
    10    5   35 1    
    11    5   76 1    
    12    6    7 1    
    13    6   77 1    
    14    6   78 1    
    15    7    8 1    
    16    8    9 1    
    17    8   79 1    
    18    8   80 1    
    19    9   10 ar   
    20    9   14 ar   
    21   10   11 ar   
    22   10   81 1    
    23   11   12 ar   
    24   11   71 1    
    25   12   13 ar   
    26   12   82 1    
    27   13   14 ar   
    28   13   15 1    
    29   14   83 1    
    30   15   16 1    
    31   15   84 1    
    32   15   85 1    
    33   16   17 1    
    34   17   18 1    
    35   17   86 1    
    36   17   87 1    
    37   18   19 1    
    38   18   37 1    
    39   18   88 1    
    40   19   20 am   BACKBONE|DICT|INTERRES
    41   19   89 1    
    42   20   21 2    
    43   20   22 1    
    44   22   23 1    
    45   22   24 1    
    46   22   90 1    
    47   23   91 1    
    48   23   92 1    
    49   23   93 1    
    50   24   25 am   BACKBONE|DICT|INTERRES
    51   24   94 1    
    52   25   26 2    
    53   25   27 1    
    54   27   28 1    
    55   27   29 1    
    56   27   95 1    
    57   28   96 1    
    58   28   97 1    
    59   28   98 1    
    60   29   30 am   BACKBONE|DICT|INTERRES
    61   29   99 1    
    62   30   31 2    
    63   30   32 1    
    64   32   33 1    
    65   32   34 1    
    66   32  100 1    
    67   33  101 1    
    68   33  102 1    
    69   33  103 1    
    70   34   35 am   BACKBONE|DICT|INTERRES
    71   34  104 1    
    72   35   36 2    
    73   37   38 2    
    74   37   39 am   BACKBONE|DICT|INTERRES
    75   39   40 1    
    76   39  105 1    
    77   40   41 1    
    78   40   42 1    
    79   40  106 1    
    80   41  107 1    
    81   41  108 1    
    82   41  109 1    
    83   42   43 2    
    84   42   44 am   BACKBONE|DICT|INTERRES
    85   44   45 1    
    86   44  110 1    
    87   45   46 1    
    88   45   47 1    
    89   45  111 1    
    90   46  112 1    
    91   46  113 1    
    92   46  114 1    
    93   47   48 2    
    94   47   49 am   BACKBONE|DICT|INTERRES
    95   49   50 1    
    96   49  115 1    
    97   50   51 1    
    98   50   52 1    
    99   50  116 1    
   100   51  117 1    
   101   51  118 1    
   102   51  119 1    
   103   52   53 2    
   104   52   54 am   BACKBONE|DICT|INTERRES
   105   54   55 1    
   106   54  120 1    
   107   55   56 1    
   108   55   57 1    
   109   55  121 1    
   110   56  122 1    
   111   56  123 1    
   112   56  124 1    
   113   57   58 2    
   114   57   59 am   BACKBONE|DICT|INTERRES
   115   59   60 1    
   116   59  125 1    
   117   60   61 1    
   118   60   62 1    
   119   60  126 1    
   120   61  127 1    
   121   61  128 1    
   122   61  129 1    
   123   62   63 2    
   124   62   64 am   BACKBONE|DICT|INTERRES
   125   64   65 1    
   126   64  130 1    
   127   65   66 1    
   128   65   69 1    
   129   65  131 1    
   130   66   67 am   BACKBONE|DICT|INTERRES
   131   66   68 2    
   132   67  132 1    
   133   67  133 1    
   134   69   70 1    
   135   69  134 1    
   136   69  135 1    
   137   70   71 1    
   138   71  136 1    
   139   71  137 1    
@<TRIPOS>SUBSTRUCTURE
     1 UNK         1 GROUP             0       ****    0 ROOT    
