@<TRIPOS>MOLECULE
3R136
137   139    1
SMALL
USER_CHARGES


@<TRIPOS>ATOM
      1 CA         27.9989   25.3170   -6.2754 C.3       0 UNK        -0.1979 
      2 C          27.6935   25.6101   -4.8139 C.2       0 UNK         0.4864 
      3 O          26.8198   26.4289   -4.5261 O.2       0 UNK        -0.5359 
      4 N          28.4099   24.9506   -3.8922 N.am      1 UNK        -0.4318 
      5 CA         28.2409   25.0847   -2.4404 C.3       1 UNK         0.0824 
      6 C6         29.4285   24.4373   -1.6834 C.3       12 UNK        -0.0944 
      7 S7         29.4886   24.8747    0.0848 S.3       12 UNK        -0.2672 
      8 C8         31.0650   24.1001    0.5542 C.3       12 UNK         0.0333 
      9 C9         31.4287   24.4930    1.9737 C.ar      12 UNK        -0.0807 
     10 C10        32.2306   25.6124    2.2068 C.ar      12 UNK        -0.0894 
     11 C11        32.4895   26.0409    3.5108 C.ar      12 UNK        -0.0804 
     12 C12        31.9544   25.3294    4.5892 C.ar      12 UNK        -0.0824 
     13 C13        31.1434   24.2113    4.3647 C.ar      12 UNK        -0.0762 
     14 C14        30.9067   23.7807    3.0556 C.ar      12 UNK        -0.0782 
     15 C15        30.4353   23.5276    5.5240 C.3       12 UNK         0.0230 
     16 S16        28.6310   23.8006    5.4466 S.3       12 UNK        -0.2608 
     17 C17        28.5125   25.6229    5.5409 C.3       12 UNK        -0.0989 
     18 CA         28.4586   26.3076    4.1436 C.3       5 UNK         0.0716 
     19 N          27.3563   25.8453    3.2934 N.am      5 UNK        -0.4135 
     20 C          26.0459   26.0541    3.4869 C.2       4 UNK         0.5031 
     21 O          25.5746   26.6884    4.4315 O.2       4 UNK        -0.5229 
     22 CA         25.0897   25.4601    2.4375 C.3       4 UNK         0.0329 
     23 CB         24.7046   26.5311    1.4043 C.3       4 UNK        -0.2001 
     24 N          25.6433   24.2901    1.7463 N.am      4 UNK        -0.4303 
     25 C          25.7645   23.0744    2.3055 C.2       3 UNK         0.5044 
     26 O          25.3972   22.8232    3.4544 O.2       3 UNK        -0.5152 
     27 CA         26.4108   21.9559    1.4566 C.3       3 UNK         0.0319 
     28 CB         25.9493   20.5438    1.8763 C.3       3 UNK        -0.2001 
     29 N          26.2624   22.1452    0.0086 N.am      3 UNK        -0.4354 
     30 C          25.1218   22.2268   -0.6968 C.2       2 UNK         0.4964 
     31 O          24.0035   22.0384   -0.2155 O.2       2 UNK        -0.5047 
     32 CA         25.2575   22.6108   -2.1890 C.3       2 UNK         0.0288 
     33 CB         24.0172   23.3667   -2.7125 C.3       2 UNK        -0.2113 
     34 N          26.4811   23.3658   -2.5104 N.am      2 UNK        -0.4145 
     35 C          26.8884   24.5210   -1.9555 C.2       1 UNK         0.5006 
     36 O          26.2668   25.1141   -1.0726 O.2       1 UNK        -0.5103 
     37 C          28.5213   27.8465    4.2227 C.2       5 UNK         0.5055 
     38 O          28.5880   28.4108    5.3168 O.2       5 UNK        -0.5220 
     39 N          28.5021   28.4955    3.0514 N.am      6 UNK        -0.4450 
     40 CA         28.6199   29.9466    2.8940 C.3       6 UNK         0.0367 
     41 CB         27.2418   30.6115    3.0845 C.3       6 UNK        -0.1929 
     42 C          29.2821   30.3049    1.5529 C.2       6 UNK         0.5070 
     43 O          28.9598   31.3393    0.9672 O.2       6 UNK        -0.5237 
     44 N          30.1807   29.4355    1.0701 N.am      7 UNK        -0.4739 
     45 CA         30.8490   29.5752   -0.2279 C.3       7 UNK         0.0276 
     46 CB         31.0748   28.1751   -0.8230 C.3       7 UNK        -0.1927 
     47 C          32.1719   30.3611   -0.1641 C.2       7 UNK         0.5013 
     48 O          32.7356   30.6519   -1.2205 O.2       7 UNK        -0.5193 
     49 N          32.6595   30.6827    1.0406 N.am      8 UNK        -0.4253 
     50 CA         33.9142   31.3950    1.2726 C.3       8 UNK         0.0242 
     51 CB         35.0683   30.3783    1.3629 C.3       8 UNK        -0.2000 
     52 C          33.8135   32.2157    2.5620 C.2       8 UNK         0.4948 
     53 O          32.9480   31.9472    3.3970 O.2       8 UNK        -0.5275 
     54 N          34.7441   33.1652    2.7325 N.am      9 UNK        -0.4246 
     55 CA         34.8730   34.0182    3.9230 C.3       9 UNK         0.0261 
     56 CB         35.9019   35.1254    3.6396 C.3       9 UNK        -0.1959 
     57 C          35.2418   33.2566    5.2127 C.2       9 UNK         0.5033 
     58 O          35.0371   33.7862    6.3055 O.2       9 UNK        -0.5390 
     59 N          35.7614   32.0295    5.0685 N.am      10 UNK        -0.4215 
     60 CA         36.0305   31.0852    6.1556 C.3       10 UNK         0.0240 
     61 CB         36.9666   29.9840    5.6284 C.3       10 UNK        -0.1982 
     62 C          34.7582   30.4596    6.7647 C.2       10 UNK         0.4970 
     63 O          34.8567   29.8251    7.8160 O.2       10 UNK        -0.4916 
     64 N          33.6069   30.6264    6.1055 N.am      11 UNK        -0.4279 
     65 CA         32.2996   30.0954    6.5027 C.3       11 UNK         0.1003 
     66 C          31.1917   31.1780    6.3536 C.2       11 UNK         0.5709 
     67 N          29.9259   30.8083    6.2194 N.am      11 UNK        -0.7358 
     68 O          31.4595   32.3762    6.4290 O.2       11 UNK        -0.4999 
     69 C69        32.0138   28.7180    5.8378 C.3       12 UNK        -0.0954 
     70 S70        32.1896   28.7259    4.0169 S.3       12 UNK        -0.2268 
     71 C71        33.2964   27.3080    3.7403 C.3       12 UNK         0.0203 
     72 H72        27.1098   24.9323   -6.7744 H         1 UNK         0.0888 
     73 H73        28.3075   26.2297   -6.7844 H         1 UNK         0.0888 
     74 H74        28.7953   24.5813   -6.3871 H         1 UNK         0.0888 
     75 H75        29.1242   24.3041   -4.1964 H         1 UNK         0.3017 
     76 H76        28.2404   26.1540   -2.2162 H         1 UNK         0.0873 
     77 H77        29.4161   23.3501   -1.7827 H         1 UNK         0.0745 
     78 H78        30.3670   24.7711   -2.1298 H         1 UNK         0.0745 
     79 H79        30.9824   23.0156    0.4679 H         1 UNK         0.0705 
     80 H80        31.8500   24.4120   -0.1367 H         1 UNK         0.0705 
     81 H81        32.6276   26.1706    1.3713 H         1 UNK         0.1334 
     82 H82        32.1266   25.6777    5.5980 H         1 UNK         0.1417 
     83 H83        30.2583   22.9330    2.8792 H         1 UNK         0.1562 
     84 H84        30.8144   23.8847    6.4829 H         1 UNK         0.0748 
     85 H85        30.6369   22.4561    5.4908 H         1 UNK         0.0748 
     86 H86        29.3605   25.9954    6.1187 H         1 UNK         0.0940 
     87 H87        27.6235   25.8773    6.1205 H         1 UNK         0.0940 
     88 H88        29.3621   26.0354    3.6030 H         1 UNK         0.0703 
     89 H89        27.6273   25.3060    2.4839 H         1 UNK         0.3081 
     90 H90        24.1806   25.1503    2.9575 H         1 UNK         0.0719 
     91 H91        24.2279   27.3854    1.8868 H         1 UNK         0.0809 
     92 H92        25.5764   26.9059    0.8664 H         1 UNK         0.0809 
     93 H93        24.0017   26.1390    0.6689 H         1 UNK         0.0809 
     94 H94        25.9313   24.4278    0.7814 H         1 UNK         0.2990 
     95 H95        27.4815   22.0209    1.6566 H         1 UNK         0.0690 
     96 H96        26.4316   19.7733    1.2750 H         1 UNK         0.0788 
     97 H97        24.8704   20.4235    1.7743 H         1 UNK         0.0788 
     98 H98        26.2008   20.3427    2.9184 H         1 UNK         0.0788 
     99 H99        27.1230   22.3145   -0.4919 H         1 UNK         0.2993 
    100 H100       25.3251   21.6677   -2.7336 H         1 UNK         0.0949 
    101 H101       23.8499   24.2943   -2.1638 H         1 UNK         0.0767 
    102 H102       24.1219   23.6169   -3.7683 H         1 UNK         0.0767 
    103 H103       23.1150   22.7618   -2.6131 H         1 UNK         0.0767 
    104 H104       27.0709   22.9559   -3.2215 H         1 UNK         0.3013 
    105 H105       28.4186   27.9627    2.1964 H         1 UNK         0.3121 
    106 H106       29.2962   30.3306    3.6583 H         1 UNK         0.0774 
    107 H107       26.5310   30.2819    2.3260 H         1 UNK         0.0815 
    108 H108       26.8202   30.3786    4.0624 H         1 UNK         0.0815 
    109 H109       27.3152   31.6976    3.0181 H         1 UNK         0.0815 
    110 H110       30.4448   28.6405    1.6352 H         1 UNK         0.2987 
    111 H111       30.1952   30.1204   -0.9126 H         1 UNK         0.0949 
    112 H112       30.1318   27.6440   -0.9492 H         1 UNK         0.0806 
    113 H113       31.5408   28.2362   -1.8073 H         1 UNK         0.0806 
    114 H114       31.7236   27.5674   -0.1942 H         1 UNK         0.0806 
    115 H115       32.1261   30.4740    1.8758 H         1 UNK         0.3010 
    116 H116       34.0985   32.0878    0.4483 H         1 UNK         0.0829 
    117 H117       34.9362   29.6955    2.2030 H         1 UNK         0.0813 
    118 H118       35.1405   29.7788    0.4552 H         1 UNK         0.0813 
    119 H119       36.0293   30.8771    1.4930 H         1 UNK         0.0813 
    120 H120       35.4214   33.3170    1.9979 H         1 UNK         0.3038 
    121 H121       33.9030   34.4888    4.0982 H         1 UNK         0.0769 
    122 H122       36.8920   34.7151    3.4370 H         1 UNK         0.0811 
    123 H123       35.6069   35.7335    2.7843 H         1 UNK         0.0811 
    124 H124       35.9971   35.7979    4.4935 H         1 UNK         0.0811 
    125 H125       35.9104   31.6909    4.1299 H         1 UNK         0.3204 
    126 H126       36.5446   31.6213    6.9561 H         1 UNK         0.0748 
    127 H127       36.5024   29.4100    4.8250 H         1 UNK         0.0771 
    128 H128       37.8992   30.4023    5.2491 H         1 UNK         0.0771 
    129 H129       37.2290   29.2810    6.4204 H         1 UNK         0.0771 
    130 H130       33.5823   31.1905    5.2629 H         1 UNK         0.2980 
    131 H131       32.3226   29.9215    7.5797 H         1 UNK         0.0545 
    132 H132       29.6520   29.8381    6.0974 H         1 UNK         0.3459 
    133 H133       29.2224   31.5262    6.1653 H         1 UNK         0.3459 
    134 H134       31.0279   28.3420    6.1053 H         1 UNK         0.0616 
    135 H135       32.7083   27.9904    6.2576 H         1 UNK         0.0616 
    136 H136       33.9149   27.5196    2.8671 H         1 UNK         0.0634 
    137 H137       33.9881   27.1816    4.5739 H         1 UNK         0.0634 
@<TRIPOS>BOND
     1    1    2 1    
     2    1   72 1    
     3    1   73 1    
     4    1   74 1    
     5    2    3 2    
     6    2    4 am   BACKBONE|DICT|INTERRES
     7    4    5 1    
     8    4   75 1    
     9    5    6 1    
    10    5   35 1    
    11    5   76 1    
    12    6    7 1    
    13    6   77 1    
    14    6   78 1    
    15    7    8 1    
    16    8    9 1    
    17    8   79 1    
    18    8   80 1    
    19    9   10 ar   
    20    9   14 ar   
    21   10   11 ar   
    22   10   81 1    
    23   11   12 ar   
    24   11   71 1    
    25   12   13 ar   
    26   12   82 1    
    27   13   14 ar   
    28   13   15 1    
    29   14   83 1    
    30   15   16 1    
    31   15   84 1    
    32   15   85 1    
    33   16   17 1    
    34   17   18 1    
    35   17   86 1    
    36   17   87 1    
    37   18   19 1    
    38   18   37 1    
    39   18   88 1    
    40   19   20 am   BACKBONE|DICT|INTERRES
    41   19   89 1    
    42   20   21 2    
    43   20   22 1    
    44   22   23 1    
    45   22   24 1    
    46   22   90 1    
    47   23   91 1    
    48   23   92 1    
    49   23   93 1    
    50   24   25 am   BACKBONE|DICT|INTERRES
    51   24   94 1    
    52   25   26 2    
    53   25   27 1    
    54   27   28 1    
    55   27   29 1    
    56   27   95 1    
    57   28   96 1    
    58   28   97 1    
    59   28   98 1    
    60   29   30 am   BACKBONE|DICT|INTERRES
    61   29   99 1    
    62   30   31 2    
    63   30   32 1    
    64   32   33 1    
    65   32   34 1    
    66   32  100 1    
    67   33  101 1    
    68   33  102 1    
    69   33  103 1    
    70   34   35 am   BACKBONE|DICT|INTERRES
    71   34  104 1    
    72   35   36 2    
    73   37   38 2    
    74   37   39 am   BACKBONE|DICT|INTERRES
    75   39   40 1    
    76   39  105 1    
    77   40   41 1    
    78   40   42 1    
    79   40  106 1    
    80   41  107 1    
    81   41  108 1    
    82   41  109 1    
    83   42   43 2    
    84   42   44 am   BACKBONE|DICT|INTERRES
    85   44   45 1    
    86   44  110 1    
    87   45   46 1    
    88   45   47 1    
    89   45  111 1    
    90   46  112 1    
    91   46  113 1    
    92   46  114 1    
    93   47   48 2    
    94   47   49 am   BACKBONE|DICT|INTERRES
    95   49   50 1    
    96   49  115 1    
    97   50   51 1    
    98   50   52 1    
    99   50  116 1    
   100   51  117 1    
   101   51  118 1    
   102   51  119 1    
   103   52   53 2    
   104   52   54 am   BACKBONE|DICT|INTERRES
   105   54   55 1    
   106   54  120 1    
   107   55   56 1    
   108   55   57 1    
   109   55  121 1    
   110   56  122 1    
   111   56  123 1    
   112   56  124 1    
   113   57   58 2    
   114   57   59 am   BACKBONE|DICT|INTERRES
   115   59   60 1    
   116   59  125 1    
   117   60   61 1    
   118   60   62 1    
   119   60  126 1    
   120   61  127 1    
   121   61  128 1    
   122   61  129 1    
   123   62   63 2    
   124   62   64 am   BACKBONE|DICT|INTERRES
   125   64   65 1    
   126   64  130 1    
   127   65   66 1    
   128   65   69 1    
   129   65  131 1    
   130   66   67 am   BACKBONE|DICT|INTERRES
   131   66   68 2    
   132   67  132 1    
   133   67  133 1    
   134   69   70 1    
   135   69  134 1    
   136   69  135 1    
   137   70   71 1    
   138   71  136 1    
   139   71  137 1    
@<TRIPOS>SUBSTRUCTURE
     1 UNK         1 GROUP             0       ****    0 ROOT    
