@<TRIPOS>MOLECULE
3R136
137   139    1
SMALL
USER_CHARGES


@<TRIPOS>ATOM
      1 CA         31.2023   27.6213    3.4468 C.3       0 UNK        -0.1979 
      2 C          29.9335   26.8541    3.7662 C.2       0 UNK         0.4864 
      3 O          29.1306   27.3037    4.5876 O.2       0 UNK        -0.5359 
      4 N          29.7333   25.7014    3.1132 N.am      1 UNK        -0.4318 
      5 CA         28.4787   24.9524    3.1556 C.3       1 UNK         0.0824 
      6 C6         28.6721   23.4299    2.9089 C.3       12 UNK        -0.0944 
      7 S7         29.3868   22.9132    1.3064 S.3       12 UNK        -0.2672 
      8 C8         31.1286   22.5418    1.7148 C.3       12 UNK         0.0333 
      9 C9         32.0191   23.7755    1.6333 C.ar      12 UNK        -0.0807 
     10 C10        32.8996   24.0943    2.6722 C.ar      12 UNK        -0.0894 
     11 C11        33.7139   25.2308    2.5936 C.ar      12 UNK        -0.0804 
     12 C12        33.6097   26.0704    1.4754 C.ar      12 UNK        -0.0824 
     13 C13        32.7368   25.7581    0.4288 C.ar      12 UNK        -0.0762 
     14 C14        31.9741   24.5921    0.5009 C.ar      12 UNK        -0.0782 
     15 C15        32.6113   26.6711   -0.7841 C.3       12 UNK         0.0230 
     16 S16        31.4939   28.0818   -0.4836 S.3       12 UNK        -0.2608 
     17 C17        29.8640   27.2835   -0.2596 C.3       12 UNK        -0.0989 
     18 CA         28.9722   27.3438   -1.5245 C.3       5 UNK         0.0716 
     19 N          27.9886   26.2607   -1.5114 N.am      5 UNK        -0.4135 
     20 C          27.3326   25.7978   -2.5822 C.2       4 UNK         0.5031 
     21 O          27.5041   26.2255   -3.7249 O.2       4 UNK        -0.5229 
     22 CA         26.3306   24.6549   -2.3550 C.3       4 UNK         0.0329 
     23 CB         27.0619   23.3025   -2.3106 C.3       4 UNK        -0.2001 
     24 N          25.5647   24.8286   -1.1181 N.am      4 UNK        -0.4303 
     25 C          24.2263   24.8306   -1.0320 C.2       3 UNK         0.5044 
     26 O          23.4759   24.6757   -1.9966 O.2       3 UNK        -0.5152 
     27 CA         23.6036   25.0265    0.3663 C.3       3 UNK         0.0319 
     28 CB         23.2498   23.6663    0.9893 C.3       3 UNK        -0.2001 
     29 N          24.4707   25.7622    1.2886 N.am      3 UNK        -0.4354 
     30 C          24.7849   27.0592    1.1678 C.2       2 UNK         0.4964 
     31 O          24.2376   27.8121    0.3618 O.2       2 UNK        -0.5047 
     32 CA         25.8964   27.6181    2.0805 C.3       2 UNK         0.0288 
     33 CB         25.3062   28.5879    3.1185 C.3       2 UNK        -0.2113 
     34 N          26.7358   26.6343    2.7824 N.am      2 UNK        -0.4145 
     35 C          27.4643   25.6545    2.2269 C.2       1 UNK         0.5006 
     36 O          27.4012   25.3572    1.0332 O.2       1 UNK        -0.5103 
     37 C          28.2829   28.7165   -1.6481 C.2       5 UNK         0.5055 
     38 O          27.1480   28.8831   -1.1959 O.2       5 UNK        -0.5220 
     39 N          29.0091   29.6891   -2.2136 N.am      6 UNK        -0.4450 
     40 CA         28.6225   31.1025   -2.2208 C.3       6 UNK         0.0367 
     41 CB         29.3853   31.8304   -3.3397 C.3       6 UNK        -0.1929 
     42 C          28.8764   31.7865   -0.8633 C.2       6 UNK         0.5070 
     43 O          28.2117   32.7762   -0.5546 O.2       6 UNK        -0.5237 
     44 N          29.8331   31.2603   -0.0871 N.am      7 UNK        -0.4739 
     45 CA         30.1568   31.7063    1.2674 C.3       7 UNK         0.0276 
     46 CB         31.6622   31.4956    1.5050 C.3       7 UNK        -0.1927 
     47 C          29.3386   30.9245    2.3071 C.2       7 UNK         0.5013 
     48 O          28.7948   29.8633    1.9950 O.2       7 UNK        -0.5193 
     49 N          29.3081   31.4458    3.5375 N.am      8 UNK        -0.4253 
     50 CA         28.7313   30.7890    4.7068 C.3       8 UNK         0.0242 
     51 CB         27.5746   31.6399    5.2559 C.3       8 UNK        -0.2000 
     52 C          29.8355   30.6281    5.7567 C.2       8 UNK         0.4948 
     53 O          30.5971   31.5729    5.9813 O.2       8 UNK        -0.5275 
     54 N          29.8956   29.4411    6.3733 N.am      9 UNK        -0.4246 
     55 CA         30.8838   28.9770    7.3526 C.3       9 UNK         0.0261 
     56 CB         30.9050   29.8452    8.6291 C.3       9 UNK        -0.1959 
     57 C          32.2730   28.7981    6.7214 C.2       9 UNK         0.5033 
     58 O          32.6547   27.6609    6.4444 O.2       9 UNK        -0.5390 
     59 N          32.9805   29.9121    6.4808 N.am      10 UNK        -0.4215 
     60 CA         34.2950   30.0200    5.8337 C.3       10 UNK         0.0240 
     61 CB         34.1231   29.9349    4.2992 C.3       10 UNK        -0.1982 
     62 C          35.3265   29.0246    6.4082 C.2       10 UNK         0.4970 
     63 O          35.6654   29.1229    7.5886 O.2       10 UNK        -0.4916 
     64 N          35.7850   28.0865    5.5721 N.am      11 UNK        -0.4279 
     65 CA         36.6492   26.9517    5.9212 C.3       11 UNK         0.1003 
     66 C          36.0295   25.8609    6.8468 C.2       11 UNK         0.5709 
     67 N          34.7410   25.8852    7.1625 N.am      11 UNK        -0.7358 
     68 O          36.7454   24.9724    7.3028 O.2       11 UNK        -0.4999 
     69 C69        37.3407   26.3539    4.6607 C.3       12 UNK        -0.0954 
     70 S70        36.3320   26.0363    3.1594 S.3       12 UNK        -0.2268 
     71 C71        34.6667   25.5616    3.7406 C.3       12 UNK         0.0203 
     72 H72        31.4020   27.6134    2.3782 H         1 UNK         0.0888 
     73 H73        31.1176   28.6606    3.7597 H         1 UNK         0.0888 
     74 H74        32.0465   27.1715    3.9627 H         1 UNK         0.0888 
     75 H75        30.4244   25.3602    2.4580 H         1 UNK         0.3017 
     76 H76        28.0785   25.0260    4.1697 H         1 UNK         0.0873 
     77 H77        27.7078   22.9278    3.0044 H         1 UNK         0.0745 
     78 H78        29.2844   23.0165    3.7114 H         1 UNK         0.0745 
     79 H79        31.1877   22.0717    2.6974 H         1 UNK         0.0705 
     80 H80        31.5001   21.8053    1.0012 H         1 UNK         0.0705 
     81 H81        32.9525   23.4555    3.5435 H         1 UNK         0.1334 
     82 H82        34.2066   26.9703    1.4182 H         1 UNK         0.1417 
     83 H83        31.3135   24.3334   -0.3159 H         1 UNK         0.1562 
     84 H84        32.2585   26.1125   -1.6526 H         1 UNK         0.0748 
     85 H85        33.5966   27.0556   -1.0518 H         1 UNK         0.0748 
     86 H86        29.3628   27.7389    0.5965 H         1 UNK         0.0940 
     87 H87        30.0127   26.2479    0.0344 H         1 UNK         0.0940 
     88 H88        29.6026   27.1927   -2.4039 H         1 UNK         0.0703 
     89 H89        27.7735   25.8758   -0.5938 H         1 UNK         0.3081 
     90 H90        25.6598   24.6482   -3.2166 H         1 UNK         0.0719 
     91 H91        27.7415   23.2386   -1.4595 H         1 UNK         0.0809 
     92 H92        26.3563   22.4749   -2.2368 H         1 UNK         0.0809 
     93 H93        27.6522   23.1460   -3.2145 H         1 UNK         0.0809 
     94 H94        26.1031   24.9744   -0.2683 H         1 UNK         0.2990 
     95 H95        22.6804   25.5960    0.2396 H         1 UNK         0.0690 
     96 H96        22.5792   23.1026    0.3390 H         1 UNK         0.0788 
     97 H97        22.7432   23.7874    1.9470 H         1 UNK         0.0788 
     98 H98        24.1373   23.0531    1.1518 H         1 UNK         0.0788 
     99 H99        24.9589   25.2198    1.9856 H         1 UNK         0.2993 
    100 H100       26.5642   28.1883    1.4306 H         1 UNK         0.0949 
    101 H101       26.0927   29.0987    3.6740 H         1 UNK         0.0767 
    102 H102       24.7040   29.3601    2.6374 H         1 UNK         0.0767 
    103 H103       24.6658   28.0712    3.8343 H         1 UNK         0.0767 
    104 H104       26.9176   26.8392    3.7561 H         1 UNK         0.3013 
    105 H105       29.9334   29.4682   -2.5575 H         1 UNK         0.3121 
    106 H106       27.5536   31.1747   -2.4338 H         1 UNK         0.0774 
    107 H107       30.4643   31.7957   -3.1838 H         1 UNK         0.0815 
    108 H108       29.0970   32.8815   -3.3864 H         1 UNK         0.0815 
    109 H109       29.1712   31.3939   -4.3155 H         1 UNK         0.0815 
    110 H110       30.2771   30.4041   -0.3872 H         1 UNK         0.2987 
    111 H111       29.9282   32.7698    1.3686 H         1 UNK         0.0949 
    112 H112       31.9298   30.4379    1.5031 H         1 UNK         0.0806 
    113 H113       32.2590   31.9931    0.7403 H         1 UNK         0.0806 
    114 H114       31.9669   31.9081    2.4671 H         1 UNK         0.0806 
    115 H115       29.8413   32.2818    3.7365 H         1 UNK         0.3010 
    116 H116       28.3415   29.8039    4.4445 H         1 UNK         0.0829 
    117 H117       26.7862   31.7594    4.5126 H         1 UNK         0.0813 
    118 H118       27.1263   31.1693    6.1319 H         1 UNK         0.0813 
    119 H119       27.9088   32.6348    5.5534 H         1 UNK         0.0813 
    120 H120       29.2984   28.7043    6.0059 H         1 UNK         0.3038 
    121 H121       30.5529   27.9809    7.6517 H         1 UNK         0.0769 
    122 H122       29.9264   29.8583    9.1089 H         1 UNK         0.0811 
    123 H123       31.6145   29.4462    9.3553 H         1 UNK         0.0811 
    124 H124       31.1901   30.8788    8.4347 H         1 UNK         0.0811 
    125 H125       32.5229   30.7898    6.6983 H         1 UNK         0.3204 
    126 H126       34.6733   31.0160    6.0683 H         1 UNK         0.0748 
    127 H127       35.0705   30.0959    3.7826 H         1 UNK         0.0771 
    128 H128       33.7249   28.9724    3.9789 H         1 UNK         0.0771 
    129 H129       33.4372   30.7039    3.9459 H         1 UNK         0.0771 
    130 H130       35.4489   28.0918    4.6215 H         1 UNK         0.2980 
    131 H131       37.4511   27.3743    6.5296 H         1 UNK         0.0545 
    132 H132       34.3779   25.1693    7.7701 H         1 UNK         0.3459 
    133 H133       34.1143   26.6087    6.8163 H         1 UNK         0.3459 
    134 H134       37.8716   25.4328    4.9085 H         1 UNK         0.0616 
    135 H135       38.1247   27.0450    4.3477 H         1 UNK         0.0616 
    136 H136       34.7674   24.7036    4.4068 H         1 UNK         0.0634 
    137 H137       34.2241   26.3660    4.3242 H         1 UNK         0.0634 
@<TRIPOS>BOND
     1    1    2 1    
     2    1   72 1    
     3    1   73 1    
     4    1   74 1    
     5    2    3 2    
     6    2    4 am   BACKBONE|DICT|INTERRES
     7    4    5 1    
     8    4   75 1    
     9    5    6 1    
    10    5   35 1    
    11    5   76 1    
    12    6    7 1    
    13    6   77 1    
    14    6   78 1    
    15    7    8 1    
    16    8    9 1    
    17    8   79 1    
    18    8   80 1    
    19    9   10 ar   
    20    9   14 ar   
    21   10   11 ar   
    22   10   81 1    
    23   11   12 ar   
    24   11   71 1    
    25   12   13 ar   
    26   12   82 1    
    27   13   14 ar   
    28   13   15 1    
    29   14   83 1    
    30   15   16 1    
    31   15   84 1    
    32   15   85 1    
    33   16   17 1    
    34   17   18 1    
    35   17   86 1    
    36   17   87 1    
    37   18   19 1    
    38   18   37 1    
    39   18   88 1    
    40   19   20 am   BACKBONE|DICT|INTERRES
    41   19   89 1    
    42   20   21 2    
    43   20   22 1    
    44   22   23 1    
    45   22   24 1    
    46   22   90 1    
    47   23   91 1    
    48   23   92 1    
    49   23   93 1    
    50   24   25 am   BACKBONE|DICT|INTERRES
    51   24   94 1    
    52   25   26 2    
    53   25   27 1    
    54   27   28 1    
    55   27   29 1    
    56   27   95 1    
    57   28   96 1    
    58   28   97 1    
    59   28   98 1    
    60   29   30 am   BACKBONE|DICT|INTERRES
    61   29   99 1    
    62   30   31 2    
    63   30   32 1    
    64   32   33 1    
    65   32   34 1    
    66   32  100 1    
    67   33  101 1    
    68   33  102 1    
    69   33  103 1    
    70   34   35 am   BACKBONE|DICT|INTERRES
    71   34  104 1    
    72   35   36 2    
    73   37   38 2    
    74   37   39 am   BACKBONE|DICT|INTERRES
    75   39   40 1    
    76   39  105 1    
    77   40   41 1    
    78   40   42 1    
    79   40  106 1    
    80   41  107 1    
    81   41  108 1    
    82   41  109 1    
    83   42   43 2    
    84   42   44 am   BACKBONE|DICT|INTERRES
    85   44   45 1    
    86   44  110 1    
    87   45   46 1    
    88   45   47 1    
    89   45  111 1    
    90   46  112 1    
    91   46  113 1    
    92   46  114 1    
    93   47   48 2    
    94   47   49 am   BACKBONE|DICT|INTERRES
    95   49   50 1    
    96   49  115 1    
    97   50   51 1    
    98   50   52 1    
    99   50  116 1    
   100   51  117 1    
   101   51  118 1    
   102   51  119 1    
   103   52   53 2    
   104   52   54 am   BACKBONE|DICT|INTERRES
   105   54   55 1    
   106   54  120 1    
   107   55   56 1    
   108   55   57 1    
   109   55  121 1    
   110   56  122 1    
   111   56  123 1    
   112   56  124 1    
   113   57   58 2    
   114   57   59 am   BACKBONE|DICT|INTERRES
   115   59   60 1    
   116   59  125 1    
   117   60   61 1    
   118   60   62 1    
   119   60  126 1    
   120   61  127 1    
   121   61  128 1    
   122   61  129 1    
   123   62   63 2    
   124   62   64 am   BACKBONE|DICT|INTERRES
   125   64   65 1    
   126   64  130 1    
   127   65   66 1    
   128   65   69 1    
   129   65  131 1    
   130   66   67 am   BACKBONE|DICT|INTERRES
   131   66   68 2    
   132   67  132 1    
   133   67  133 1    
   134   69   70 1    
   135   69  134 1    
   136   69  135 1    
   137   70   71 1    
   138   71  136 1    
   139   71  137 1    
@<TRIPOS>SUBSTRUCTURE
     1 UNK         1 GROUP             0       ****    0 ROOT    
