@<TRIPOS>MOLECULE
3R136
137   139    1
SMALL
USER_CHARGES


@<TRIPOS>ATOM
      1 CA         27.4275   23.6542   -3.0506 C.3       0 UNK        -0.1979 
      2 C          28.0475   22.9134   -1.8745 C.2       0 UNK         0.4864 
      3 O          27.7089   21.7528   -1.6413 O.2       0 UNK        -0.5359 
      4 N          28.9500   23.5891   -1.1521 N.am      1 UNK        -0.4318 
      5 CA         29.6668   23.1495    0.0492 C.3       1 UNK         0.0824 
      6 C6         30.3241   21.7468   -0.0838 C.3       12 UNK        -0.0944 
      7 S7         31.7440   21.4598    1.0283 S.3       12 UNK        -0.2672 
      8 C8         33.1385   22.1896    0.1026 C.3       12 UNK         0.0333 
      9 C9         33.1896   23.6938    0.3164 C.ar      12 UNK        -0.0807 
     10 C10        33.6315   24.2035    1.5392 C.ar      12 UNK        -0.0894 
     11 C11        33.5634   25.5731    1.8041 C.ar      12 UNK        -0.0804 
     12 C12        33.0432   26.4369    0.8354 C.ar      12 UNK        -0.0824 
     13 C13        32.6156   25.9391   -0.3996 C.ar      12 UNK        -0.0762 
     14 C14        32.7317   24.5719   -0.6697 C.ar      12 UNK        -0.0782 
     15 C15        31.9900   26.8607   -1.4351 C.3       12 UNK         0.0230 
     16 S16        30.1906   26.5877   -1.5597 S.3       12 UNK        -0.2608 
     17 C17        29.5509   27.5255   -0.1334 C.3       12 UNK        -0.0989 
     18 CA         28.0428   27.8462   -0.3213 C.3       5 UNK         0.0716 
     19 N          27.1519   26.7569    0.0961 N.am      5 UNK        -0.4135 
     20 C          25.9548   26.5162   -0.4657 C.2       4 UNK         0.5031 
     21 O          25.5839   27.0324   -1.5205 O.2       4 UNK        -0.5229 
     22 CA         24.9764   25.5755    0.2665 C.3       4 UNK         0.0329 
     23 CB         24.8484   24.2173   -0.4379 C.3       4 UNK        -0.2001 
     24 N          25.3229   25.3760    1.6754 N.am      4 UNK        -0.4303 
     25 C          24.9846   26.2371    2.6477 C.2       3 UNK         0.5044 
     26 O          24.2465   27.2042    2.4643 O.2       3 UNK        -0.5152 
     27 CA         25.5597   26.0103    4.0601 C.3       3 UNK         0.0319 
     28 CB         24.4670   25.4898    5.0081 C.3       3 UNK        -0.2001 
     29 N          26.7117   25.1072    4.1228 N.am      3 UNK        -0.4354 
     30 C          27.8935   25.3035    3.5244 C.2       2 UNK         0.4964 
     31 O          28.1434   26.2838    2.8160 O.2       2 UNK        -0.5047 
     32 CA         28.9565   24.1964    3.6917 C.3       2 UNK         0.0288 
     33 CB         28.4703   22.9512    4.4697 C.3       2 UNK        -0.2113 
     34 N          29.5170   23.7991    2.3960 N.am      2 UNK        -0.4145 
     35 C          28.8351   23.3528    1.3286 C.2       1 UNK         0.5006 
     36 O          27.6176   23.1544    1.3271 O.2       1 UNK        -0.5103 
     37 C          27.6287   29.1344    0.4119 C.2       5 UNK         0.5055 
     38 O          27.3519   30.1330   -0.2544 O.2       5 UNK        -0.5220 
     39 N          27.5637   29.0815    1.7534 N.am      6 UNK        -0.4450 
     40 CA         27.1315   30.1321    2.6941 C.3       6 UNK         0.0367 
     41 CB         25.6535   30.5125    2.4794 C.3       6 UNK        -0.1929 
     42 C          28.0063   31.4007    2.7272 C.2       6 UNK         0.5070 
     43 O          28.4223   31.8197    3.8073 O.2       6 UNK        -0.5237 
     44 N          28.2621   31.9999    1.5617 N.am      7 UNK        -0.4739 
     45 CA         29.0872   33.1897    1.3692 C.3       7 UNK         0.0276 
     46 CB         28.4397   34.0693    0.2834 C.3       7 UNK        -0.1927 
     47 C          30.5163   32.7586    1.0073 C.2       7 UNK         0.5013 
     48 O          30.9403   32.9118   -0.1401 O.2       7 UNK        -0.5193 
     49 N          31.2209   32.1899    1.9889 N.am      8 UNK        -0.4253 
     50 CA         32.5856   31.6863    1.8731 C.3       8 UNK         0.0242 
     51 CB         32.5575   30.2576    1.3006 C.3       8 UNK        -0.2000 
     52 C          33.2466   31.7192    3.2552 C.2       8 UNK         0.4948 
     53 O          32.5461   31.8410    4.2644 O.2       8 UNK        -0.5275 
     54 N          34.5799   31.5919    3.2833 N.am      9 UNK        -0.4246 
     55 CA         35.3817   31.5168    4.5078 C.3       9 UNK         0.0261 
     56 CB         36.8748   31.4790    4.1428 C.3       9 UNK        -0.1959 
     57 C          34.9935   30.2892    5.3480 C.2       9 UNK         0.5033 
     58 O          35.0197   29.1720    4.8264 O.2       9 UNK        -0.5390 
     59 N          34.5996   30.5290    6.6063 N.am      10 UNK        -0.4215 
     60 CA         34.0750   29.5832    7.6047 C.3       10 UNK         0.0240 
     61 CB         35.1019   28.4844    7.9446 C.3       10 UNK        -0.1982 
     62 C          32.7046   28.9711    7.2514 C.2       10 UNK         0.4970 
     63 O          31.8337   28.9154    8.1205 O.2       10 UNK        -0.4916 
     64 N          32.5386   28.5213    6.0043 N.am      11 UNK        -0.4279 
     65 CA         31.3163   27.9015    5.4737 C.3       11 UNK         0.1003 
     66 C          30.1274   28.8787    5.2698 C.2       11 UNK         0.5709 
     67 N          30.3527   30.1765    5.1184 N.am      11 UNK        -0.7358 
     68 O          28.9790   28.4452    5.2495 O.2       11 UNK        -0.4999 
     69 C69        31.6025   27.1180    4.1690 C.3       12 UNK        -0.0954 
     70 S70        32.7896   25.7623    4.4423 S.3       12 UNK        -0.2268 
     71 C71        34.0273   26.0985    3.1531 C.3       12 UNK         0.0203 
     72 H72        26.3541   23.4719   -3.0899 H         1 UNK         0.0888 
     73 H73        27.5824   24.7312   -2.9790 H         1 UNK         0.0888 
     74 H74        27.8655   23.3060   -3.9855 H         1 UNK         0.0888 
     75 H75        29.1548   24.5447   -1.4193 H         1 UNK         0.3017 
     76 H76        30.4598   23.8829    0.1286 H         1 UNK         0.0873 
     77 H77        30.6702   21.5922   -1.1068 H         1 UNK         0.0745 
     78 H78        29.5864   20.9632    0.0974 H         1 UNK         0.0745 
     79 H79        33.0616   21.9405   -0.9568 H         1 UNK         0.0705 
     80 H80        34.0694   21.7436    0.4560 H         1 UNK         0.0705 
     81 H81        33.9910   23.5276    2.3036 H         1 UNK         0.1334 
     82 H82        32.9599   27.4917    1.0482 H         1 UNK         0.1417 
     83 H83        32.3836   24.1835   -1.6177 H         1 UNK         0.1562 
     84 H84        32.4428   26.6636   -2.4078 H         1 UNK         0.0748 
     85 H85        32.1964   27.9083   -1.2107 H         1 UNK         0.0748 
     86 H86        30.1371   28.4439   -0.0568 H         1 UNK         0.0940 
     87 H87        29.7372   26.9683    0.7862 H         1 UNK         0.0940 
     88 H88        27.8813   28.0474   -1.3832 H         1 UNK         0.0703 
     89 H89        27.3693   26.3238    0.9870 H         1 UNK         0.3081 
     90 H90        23.9942   26.0504    0.2114 H         1 UNK         0.0719 
     91 H91        24.6028   24.3443   -1.4930 H         1 UNK         0.0809 
     92 H92        25.7683   23.6410   -0.3805 H         1 UNK         0.0809 
     93 H93        24.0549   23.6172    0.0073 H         1 UNK         0.0809 
     94 H94        25.9312   24.5946    1.8907 H         1 UNK         0.2990 
     95 H95        25.8929   26.9846    4.4247 H         1 UNK         0.0690 
     96 H96        24.8297   25.4211    6.0339 H         1 UNK         0.0788 
     97 H97        24.1102   24.5033    4.7091 H         1 UNK         0.0788 
     98 H98        23.6051   26.1588    5.0171 H         1 UNK         0.0788 
     99 H99        26.5883   24.2586    4.6562 H         1 UNK         0.2993 
    100 H100       29.7716   24.6384    4.2646 H         1 UNK         0.0949 
    101 H101       28.1646   23.2090    5.4846 H         1 UNK         0.0767 
    102 H102       27.6304   22.4577    3.9789 H         1 UNK         0.0767 
    103 H103       29.2703   22.2160    4.5609 H         1 UNK         0.0767 
    104 H104       30.5131   23.9414    2.2962 H         1 UNK         0.3013 
    105 H105       27.8413   28.2113    2.1994 H         1 UNK         0.3121 
    106 H106       27.2036   29.6809    3.6845 H         1 UNK         0.0774 
    107 H107       25.0011   29.6482    2.5835 H         1 UNK         0.0815 
    108 H108       25.3302   31.2473    3.2180 H         1 UNK         0.0815 
    109 H109       25.4781   30.9467    1.4949 H         1 UNK         0.0815 
    110 H110       27.9166   31.5371    0.7221 H         1 UNK         0.2987 
    111 H111       29.1344   33.7731    2.2917 H         1 UNK         0.0949 
    112 H112       27.4445   34.3978    0.5835 H         1 UNK         0.0806 
    113 H113       29.0350   34.9646    0.0997 H         1 UNK         0.0806 
    114 H114       28.3439   33.5386   -0.6649 H         1 UNK         0.0806 
    115 H115       30.8259   32.1254    2.9207 H         1 UNK         0.3010 
    116 H116       33.1586   32.3385    1.2101 H         1 UNK         0.0829 
    117 H117       33.5587   29.8273    1.2579 H         1 UNK         0.0813 
    118 H118       31.9372   29.6000    1.9094 H         1 UNK         0.0813 
    119 H119       32.1580   30.2461    0.2864 H         1 UNK         0.0813 
    120 H120       35.0760   31.4657    2.4131 H         1 UNK         0.3038 
    121 H121       35.1926   32.4237    5.0861 H         1 UNK         0.0769 
    122 H122       37.4941   31.4399    5.0400 H         1 UNK         0.0811 
    123 H123       37.1711   32.3671    3.5842 H         1 UNK         0.0811 
    124 H124       37.1211   30.6038    3.5397 H         1 UNK         0.0811 
    125 H125       34.5799   31.4961    6.9011 H         1 UNK         0.3204 
    126 H126       33.9235   30.1736    8.5100 H         1 UNK         0.0748 
    127 H127       34.7434   27.8587    8.7631 H         1 UNK         0.0771 
    128 H128       35.2942   27.8256    7.0971 H         1 UNK         0.0771 
    129 H129       36.0533   28.9141    8.2579 H         1 UNK         0.0771 
    130 H130       33.3286   28.5989    5.3691 H         1 UNK         0.2980 
    131 H131       30.9782   27.1789    6.2191 H         1 UNK         0.0545 
    132 H132       31.2913   30.5573    5.0886 H         1 UNK         0.3459 
    133 H133       29.5665   30.7899    4.9335 H         1 UNK         0.3459 
    134 H134       30.6895   26.6882    3.7585 H         1 UNK         0.0616 
    135 H135       31.9822   27.7946    3.4037 H         1 UNK         0.0616 
    136 H136       34.2458   27.1664    3.1076 H         1 UNK         0.0634 
    137 H137       34.9622   25.6092    3.4298 H         1 UNK         0.0634 
@<TRIPOS>BOND
     1    1    2 1    
     2    1   72 1    
     3    1   73 1    
     4    1   74 1    
     5    2    3 2    
     6    2    4 am   BACKBONE|DICT|INTERRES
     7    4    5 1    
     8    4   75 1    
     9    5    6 1    
    10    5   35 1    
    11    5   76 1    
    12    6    7 1    
    13    6   77 1    
    14    6   78 1    
    15    7    8 1    
    16    8    9 1    
    17    8   79 1    
    18    8   80 1    
    19    9   10 ar   
    20    9   14 ar   
    21   10   11 ar   
    22   10   81 1    
    23   11   12 ar   
    24   11   71 1    
    25   12   13 ar   
    26   12   82 1    
    27   13   14 ar   
    28   13   15 1    
    29   14   83 1    
    30   15   16 1    
    31   15   84 1    
    32   15   85 1    
    33   16   17 1    
    34   17   18 1    
    35   17   86 1    
    36   17   87 1    
    37   18   19 1    
    38   18   37 1    
    39   18   88 1    
    40   19   20 am   BACKBONE|DICT|INTERRES
    41   19   89 1    
    42   20   21 2    
    43   20   22 1    
    44   22   23 1    
    45   22   24 1    
    46   22   90 1    
    47   23   91 1    
    48   23   92 1    
    49   23   93 1    
    50   24   25 am   BACKBONE|DICT|INTERRES
    51   24   94 1    
    52   25   26 2    
    53   25   27 1    
    54   27   28 1    
    55   27   29 1    
    56   27   95 1    
    57   28   96 1    
    58   28   97 1    
    59   28   98 1    
    60   29   30 am   BACKBONE|DICT|INTERRES
    61   29   99 1    
    62   30   31 2    
    63   30   32 1    
    64   32   33 1    
    65   32   34 1    
    66   32  100 1    
    67   33  101 1    
    68   33  102 1    
    69   33  103 1    
    70   34   35 am   BACKBONE|DICT|INTERRES
    71   34  104 1    
    72   35   36 2    
    73   37   38 2    
    74   37   39 am   BACKBONE|DICT|INTERRES
    75   39   40 1    
    76   39  105 1    
    77   40   41 1    
    78   40   42 1    
    79   40  106 1    
    80   41  107 1    
    81   41  108 1    
    82   41  109 1    
    83   42   43 2    
    84   42   44 am   BACKBONE|DICT|INTERRES
    85   44   45 1    
    86   44  110 1    
    87   45   46 1    
    88   45   47 1    
    89   45  111 1    
    90   46  112 1    
    91   46  113 1    
    92   46  114 1    
    93   47   48 2    
    94   47   49 am   BACKBONE|DICT|INTERRES
    95   49   50 1    
    96   49  115 1    
    97   50   51 1    
    98   50   52 1    
    99   50  116 1    
   100   51  117 1    
   101   51  118 1    
   102   51  119 1    
   103   52   53 2    
   104   52   54 am   BACKBONE|DICT|INTERRES
   105   54   55 1    
   106   54  120 1    
   107   55   56 1    
   108   55   57 1    
   109   55  121 1    
   110   56  122 1    
   111   56  123 1    
   112   56  124 1    
   113   57   58 2    
   114   57   59 am   BACKBONE|DICT|INTERRES
   115   59   60 1    
   116   59  125 1    
   117   60   61 1    
   118   60   62 1    
   119   60  126 1    
   120   61  127 1    
   121   61  128 1    
   122   61  129 1    
   123   62   63 2    
   124   62   64 am   BACKBONE|DICT|INTERRES
   125   64   65 1    
   126   64  130 1    
   127   65   66 1    
   128   65   69 1    
   129   65  131 1    
   130   66   67 am   BACKBONE|DICT|INTERRES
   131   66   68 2    
   132   67  132 1    
   133   67  133 1    
   134   69   70 1    
   135   69  134 1    
   136   69  135 1    
   137   70   71 1    
   138   71  136 1    
   139   71  137 1    
@<TRIPOS>SUBSTRUCTURE
     1 UNK         1 GROUP             0       ****    0 ROOT    
