@<TRIPOS>MOLECULE
3R136
137   139    1
SMALL
USER_CHARGES


@<TRIPOS>ATOM
      1 CA         28.9013   22.7997   -1.1761 C.3       0 UNK        -0.1979 
      2 C          28.3139   23.6369   -0.0512 C.2       0 UNK         0.4864 
      3 O          27.5477   24.5635   -0.3106 O.2       0 UNK        -0.5359 
      4 N          28.6547   23.3234    1.2047 N.am      1 UNK        -0.4318 
      5 CA         28.1593   24.0246    2.3975 C.3       1 UNK         0.0824 
      6 C6         28.9398   23.6112    3.6710 C.3       12 UNK        -0.0944 
      7 S7         30.5074   24.5294    3.8339 S.3       12 UNK        -0.2672 
      8 C8         31.6712   23.5839    2.8028 C.3       12 UNK         0.0333 
      9 C9         32.4365   24.5226    1.8812 C.ar      12 UNK        -0.0807 
     10 C10        33.5622   25.1997    2.3553 C.ar      12 UNK        -0.0894 
     11 C11        34.2511   26.1027    1.5389 C.ar      12 UNK        -0.0804 
     12 C12        33.8162   26.3044    0.2238 C.ar      12 UNK        -0.0824 
     13 C13        32.7092   25.6082   -0.2746 C.ar      12 UNK        -0.0762 
     14 C14        32.0206   24.7247    0.5623 C.ar      12 UNK        -0.0782 
     15 C15        32.2800   25.7796   -1.7270 C.3       12 UNK         0.0230 
     16 S16        31.3091   27.2950   -2.0012 S.3       12 UNK        -0.2608 
     17 C17        29.7821   26.9238   -1.0737 C.3       12 UNK        -0.0989 
     18 CA         28.6494   27.9700   -1.2416 C.3       5 UNK         0.0716 
     19 N          27.4069   27.4810   -0.6277 N.am      5 UNK        -0.4135 
     20 C          26.2409   28.1422   -0.5663 C.2       4 UNK         0.5031 
     21 O          26.0132   29.1944   -1.1686 O.2       4 UNK        -0.5229 
     22 CA         25.1590   27.5205    0.3385 C.3       4 UNK         0.0329 
     23 CB         23.8589   28.3519    0.3993 C.3       4 UNK        -0.2001 
     24 N          24.8770   26.1216    0.0071 N.am      4 UNK        -0.4303 
     25 C          24.3688   25.6332   -1.1356 C.2       3 UNK         0.5044 
     26 O          24.0223   26.3328   -2.0883 O.2       3 UNK        -0.5152 
     27 CA         24.2183   24.1023   -1.2474 C.3       3 UNK         0.0319 
     28 CB         24.9713   23.5667   -2.4785 C.3       3 UNK        -0.2001 
     29 N          24.7036   23.3975   -0.0574 N.am      3 UNK        -0.4354 
     30 C          23.9557   23.0454    0.9982 C.2       2 UNK         0.4964 
     31 O          22.7427   23.2408    1.0708 O.2       2 UNK        -0.5047 
     32 CA         24.6778   22.3663    2.1798 C.3       2 UNK         0.0288 
     33 CB         24.4807   20.8425    2.1234 C.3       2 UNK        -0.2113 
     34 N          26.1138   22.6614    2.2362 N.am      2 UNK        -0.4145 
     35 C          26.6339   23.8529    2.5693 C.2       1 UNK         0.5006 
     36 O          25.9525   24.8153    2.9250 O.2       1 UNK        -0.5103 
     37 C          29.0672   29.3518   -0.6820 C.2       5 UNK         0.5055 
     38 O          28.8601   29.6319    0.5030 O.2       5 UNK        -0.5220 
     39 N          29.6650   30.1827   -1.5468 N.am      6 UNK        -0.4450 
     40 CA         30.2000   31.5011   -1.2085 C.3       6 UNK         0.0367 
     41 CB         30.7379   32.1782   -2.4797 C.3       6 UNK        -0.1929 
     42 C          31.2956   31.4062   -0.1334 C.2       6 UNK         0.5070 
     43 O          32.2575   30.6568   -0.3086 O.2       6 UNK        -0.5237 
     44 N          31.1093   32.1667    0.9528 N.am      7 UNK        -0.4739 
     45 CA         31.9614   32.2376    2.1454 C.3       7 UNK         0.0276 
     46 CB         33.3840   32.7265    1.7963 C.3       7 UNK        -0.1927 
     47 C          31.9747   30.9567    3.0048 C.2       7 UNK         0.5013 
     48 O          32.8528   30.8308    3.8586 O.2       7 UNK        -0.5193 
     49 N          30.9791   30.0662    2.8500 N.am      8 UNK        -0.4253 
     50 CA         30.8127   28.8469    3.6599 C.3       8 UNK         0.0242 
     51 CB         29.5581   28.0850    3.2051 C.3       8 UNK        -0.2000 
     52 C          30.7579   29.0988    5.1802 C.2       8 UNK         0.4948 
     53 O          31.2562   28.2794    5.9520 O.2       8 UNK        -0.5275 
     54 N          30.2022   30.2523    5.5791 N.am      9 UNK        -0.4246 
     55 CA         30.1765   30.7370    6.9612 C.3       9 UNK         0.0261 
     56 CB         29.2250   31.9409    7.0558 C.3       9 UNK        -0.1959 
     57 C          31.5656   31.1049    7.5200 C.2       9 UNK         0.5033 
     58 O          31.7471   31.0467    8.7371 O.2       9 UNK        -0.5390 
     59 N          32.5133   31.4740    6.6450 N.am      10 UNK        -0.4215 
     60 CA         33.9106   31.7252    7.0026 C.3       10 UNK         0.0240 
     61 CB         34.5201   32.7700    6.0528 C.3       10 UNK        -0.1982 
     62 C          34.7260   30.4233    6.9829 C.2       10 UNK         0.4970 
     63 O          35.5995   30.2570    7.8353 O.2       10 UNK        -0.4916 
     64 N          34.4221   29.5238    6.0346 N.am      11 UNK        -0.4279 
     65 CA         34.9827   28.1654    5.9652 C.3       11 UNK         0.1003 
     66 C          34.6360   27.3023    7.2106 C.2       11 UNK         0.5709 
     67 N          33.3826   27.2819    7.6475 N.am      11 UNK        -0.7358 
     68 O          35.5088   26.6510    7.7797 O.2       11 UNK        -0.4999 
     69 C69        34.5659   27.4135    4.6762 C.3       12 UNK        -0.0954 
     70 S70        35.0515   28.2505    3.1301 S.3       12 UNK        -0.2268 
     71 C71        35.4816   26.8338    2.0655 C.3       12 UNK         0.0203 
     72 H72        29.6177   22.0657   -0.8081 H         1 UNK         0.0888 
     73 H73        28.1074   22.2679   -1.6995 H         1 UNK         0.0888 
     74 H74        29.4106   23.4405   -1.8949 H         1 UNK         0.0888 
     75 H75        29.2703   22.5415    1.3734 H         1 UNK         0.3017 
     76 H76        28.3163   25.0937    2.2330 H         1 UNK         0.0873 
     77 H77        28.3641   23.8405    4.5704 H         1 UNK         0.0745 
     78 H78        29.1248   22.5360    3.7030 H         1 UNK         0.0745 
     79 H79        32.3653   23.0478    3.4518 H         1 UNK         0.0705 
     80 H80        31.1516   22.8217    2.2232 H         1 UNK         0.0705 
     81 H81        33.8900   25.0254    3.3692 H         1 UNK         0.1334 
     82 H82        34.3463   26.9936   -0.4195 H         1 UNK         0.1417 
     83 H83        31.1627   24.1914    0.1836 H         1 UNK         0.1562 
     84 H84        31.7048   24.9161   -2.0646 H         1 UNK         0.0748 
     85 H85        33.1667   25.8154   -2.3617 H         1 UNK         0.0748 
     86 H86        30.0288   26.7901   -0.0191 H         1 UNK         0.0940 
     87 H87        29.4313   25.9580   -1.4342 H         1 UNK         0.0940 
     88 H88        28.4397   28.0846   -2.3070 H         1 UNK         0.0703 
     89 H89        27.4576   26.5618   -0.2009 H         1 UNK         0.3081 
     90 H90        25.5807   27.5099    1.3451 H         1 UNK         0.0719 
     91 H91        23.1338   27.9049    1.0794 H         1 UNK         0.0809 
     92 H92        23.3877   28.4464   -0.5794 H         1 UNK         0.0809 
     93 H93        24.0605   29.3616    0.7592 H         1 UNK         0.0809 
     94 H94        25.1507   25.4503    0.7117 H         1 UNK         0.2990 
     95 H95        23.1556   23.8929   -1.3863 H         1 UNK         0.0690 
     96 H96        24.8706   22.4848   -2.5669 H         1 UNK         0.0788 
     97 H97        26.0346   23.8045   -2.4375 H         1 UNK         0.0788 
     98 H98        24.5777   24.0026   -3.3976 H         1 UNK         0.0788 
     99 H99        25.7023   23.2493   -0.0167 H         1 UNK         0.2993 
    100 H100       24.2170   22.7380    3.0980 H         1 UNK         0.0949 
    101 H101       23.4202   20.5863    2.1126 H         1 UNK         0.0767 
    102 H102       24.9296   20.4090    1.2287 H         1 UNK         0.0767 
    103 H103       24.9208   20.3528    2.9925 H         1 UNK         0.0767 
    104 H104       26.7419   21.9231    1.9531 H         1 UNK         0.3013 
    105 H105       29.8517   29.8488   -2.4811 H         1 UNK         0.3121 
    106 H106       29.3719   32.1016   -0.8257 H         1 UNK         0.0774 
    107 H107       31.1263   33.1727   -2.2560 H         1 UNK         0.0815 
    108 H108       31.5505   31.6052   -2.9286 H         1 UNK         0.0815 
    109 H109       29.9555   32.2981   -3.2294 H         1 UNK         0.0815 
    110 H110       30.2729   32.7344    0.9901 H         1 UNK         0.2987 
    111 H111       31.5107   33.0018    2.7805 H         1 UNK         0.0949 
    112 H112       33.9522   31.9688    1.2557 H         1 UNK         0.0806 
    113 H113       33.3574   33.6284    1.1851 H         1 UNK         0.0806 
    114 H114       33.9481   32.9664    2.6981 H         1 UNK         0.0806 
    115 H115       30.3030   30.2130    2.1089 H         1 UNK         0.3010 
    116 H116       31.6800   28.2123    3.4693 H         1 UNK         0.0829 
    117 H117       29.6863   27.6813    2.2017 H         1 UNK         0.0813 
    118 H118       29.3470   27.2423    3.8637 H         1 UNK         0.0813 
    119 H119       28.6739   28.7228    3.2025 H         1 UNK         0.0813 
    120 H120       29.8061   30.8578    4.8751 H         1 UNK         0.3038 
    121 H121       29.7771   29.9358    7.5868 H         1 UNK         0.0769 
    122 H122       29.1599   32.3064    8.0818 H         1 UNK         0.0811 
    123 H123       28.2144   31.6747    6.7453 H         1 UNK         0.0811 
    124 H124       29.5610   32.7725    6.4351 H         1 UNK         0.0811 
    125 H125       32.3136   31.4268    5.6512 H         1 UNK         0.3204 
    126 H126       33.9540   32.1333    8.0148 H         1 UNK         0.0748 
    127 H127       35.5319   33.0313    6.3653 H         1 UNK         0.0771 
    128 H128       34.5848   32.4040    5.0284 H         1 UNK         0.0771 
    129 H129       33.9352   33.6899    6.0455 H         1 UNK         0.0771 
    130 H130       33.7456   29.7685    5.3200 H         1 UNK         0.2980 
    131 H131       36.0688   28.2738    5.9446 H         1 UNK         0.0545 
    132 H132       32.6486   27.7526    7.1238 H         1 UNK         0.3459 
    133 H133       33.1484   26.7285    8.4553 H         1 UNK         0.3459 
    134 H134       35.0262   26.4248    4.6864 H         1 UNK         0.0616 
    135 H135       33.4877   27.2503    4.6536 H         1 UNK         0.0616 
    136 H136       36.0797   27.2040    1.2315 H         1 UNK         0.0634 
    137 H137       36.1250   26.1412    2.6099 H         1 UNK         0.0634 
@<TRIPOS>BOND
     1    1    2 1    
     2    1   72 1    
     3    1   73 1    
     4    1   74 1    
     5    2    3 2    
     6    2    4 am   BACKBONE|DICT|INTERRES
     7    4    5 1    
     8    4   75 1    
     9    5    6 1    
    10    5   35 1    
    11    5   76 1    
    12    6    7 1    
    13    6   77 1    
    14    6   78 1    
    15    7    8 1    
    16    8    9 1    
    17    8   79 1    
    18    8   80 1    
    19    9   10 ar   
    20    9   14 ar   
    21   10   11 ar   
    22   10   81 1    
    23   11   12 ar   
    24   11   71 1    
    25   12   13 ar   
    26   12   82 1    
    27   13   14 ar   
    28   13   15 1    
    29   14   83 1    
    30   15   16 1    
    31   15   84 1    
    32   15   85 1    
    33   16   17 1    
    34   17   18 1    
    35   17   86 1    
    36   17   87 1    
    37   18   19 1    
    38   18   37 1    
    39   18   88 1    
    40   19   20 am   BACKBONE|DICT|INTERRES
    41   19   89 1    
    42   20   21 2    
    43   20   22 1    
    44   22   23 1    
    45   22   24 1    
    46   22   90 1    
    47   23   91 1    
    48   23   92 1    
    49   23   93 1    
    50   24   25 am   BACKBONE|DICT|INTERRES
    51   24   94 1    
    52   25   26 2    
    53   25   27 1    
    54   27   28 1    
    55   27   29 1    
    56   27   95 1    
    57   28   96 1    
    58   28   97 1    
    59   28   98 1    
    60   29   30 am   BACKBONE|DICT|INTERRES
    61   29   99 1    
    62   30   31 2    
    63   30   32 1    
    64   32   33 1    
    65   32   34 1    
    66   32  100 1    
    67   33  101 1    
    68   33  102 1    
    69   33  103 1    
    70   34   35 am   BACKBONE|DICT|INTERRES
    71   34  104 1    
    72   35   36 2    
    73   37   38 2    
    74   37   39 am   BACKBONE|DICT|INTERRES
    75   39   40 1    
    76   39  105 1    
    77   40   41 1    
    78   40   42 1    
    79   40  106 1    
    80   41  107 1    
    81   41  108 1    
    82   41  109 1    
    83   42   43 2    
    84   42   44 am   BACKBONE|DICT|INTERRES
    85   44   45 1    
    86   44  110 1    
    87   45   46 1    
    88   45   47 1    
    89   45  111 1    
    90   46  112 1    
    91   46  113 1    
    92   46  114 1    
    93   47   48 2    
    94   47   49 am   BACKBONE|DICT|INTERRES
    95   49   50 1    
    96   49  115 1    
    97   50   51 1    
    98   50   52 1    
    99   50  116 1    
   100   51  117 1    
   101   51  118 1    
   102   51  119 1    
   103   52   53 2    
   104   52   54 am   BACKBONE|DICT|INTERRES
   105   54   55 1    
   106   54  120 1    
   107   55   56 1    
   108   55   57 1    
   109   55  121 1    
   110   56  122 1    
   111   56  123 1    
   112   56  124 1    
   113   57   58 2    
   114   57   59 am   BACKBONE|DICT|INTERRES
   115   59   60 1    
   116   59  125 1    
   117   60   61 1    
   118   60   62 1    
   119   60  126 1    
   120   61  127 1    
   121   61  128 1    
   122   61  129 1    
   123   62   63 2    
   124   62   64 am   BACKBONE|DICT|INTERRES
   125   64   65 1    
   126   64  130 1    
   127   65   66 1    
   128   65   69 1    
   129   65  131 1    
   130   66   67 am   BACKBONE|DICT|INTERRES
   131   66   68 2    
   132   67  132 1    
   133   67  133 1    
   134   69   70 1    
   135   69  134 1    
   136   69  135 1    
   137   70   71 1    
   138   71  136 1    
   139   71  137 1    
@<TRIPOS>SUBSTRUCTURE
     1 UNK         1 GROUP             0       ****    0 ROOT    
