@<TRIPOS>MOLECULE
3R136
137   139    1
SMALL
USER_CHARGES


@<TRIPOS>ATOM
      1 CA         30.3711   26.7072   -1.2432 C.3       0 UNK        -0.1979 
      2 C          29.4403   25.8897   -0.3622 C.2       0 UNK         0.4864 
      3 O          28.2690   26.2455   -0.2227 O.2       0 UNK        -0.5359 
      4 N          29.9434   24.7990    0.2347 N.am      1 UNK        -0.4318 
      5 CA         29.2050   23.9079    1.1430 C.3       1 UNK         0.0824 
      6 C6         30.1228   22.8513    1.8057 C.3       12 UNK        -0.0944 
      7 S7         31.4156   23.6255    2.8306 S.3       12 UNK        -0.2672 
      8 C8         30.6631   23.5156    4.4835 C.3       12 UNK         0.0333 
      9 C9         31.0611   24.7084    5.3362 C.ar      12 UNK        -0.0807 
     10 C10        32.2251   24.6737    6.1075 C.ar      12 UNK        -0.0894 
     11 C11        32.5992   25.7801    6.8772 C.ar      12 UNK        -0.0804 
     12 C12        31.7956   26.9249    6.8718 C.ar      12 UNK        -0.0824 
     13 C13        30.6168   26.9638    6.1194 C.ar      12 UNK        -0.0762 
     14 C14        30.2559   25.8494    5.3561 C.ar      12 UNK        -0.0782 
     15 C15        29.7214   28.1954    6.1626 C.3       12 UNK         0.0230 
     16 S16        29.5192   28.9603    4.5245 S.3       12 UNK        -0.2608 
     17 C17        27.8802   28.3459    4.0045 C.3       12 UNK        -0.0989 
     18 CA         27.7593   28.1977    2.4590 C.3       5 UNK         0.0716 
     19 N          26.8261   27.1446    2.0464 N.am      5 UNK        -0.4135 
     20 C          25.5290   27.0537    2.3733 C.2       4 UNK         0.5031 
     21 O          24.9477   27.8541    3.1083 O.2       4 UNK        -0.5229 
     22 CA         24.7629   25.8411    1.8077 C.3       4 UNK         0.0329 
     23 CB         23.2329   25.9524    1.9860 C.3       4 UNK        -0.2001 
     24 N          25.1059   25.5213    0.4173 N.am      4 UNK        -0.4303 
     25 C          24.9076   26.2802   -0.6738 C.2       3 UNK         0.5044 
     26 O          24.4165   27.4090   -0.6414 O.2       3 UNK        -0.5152 
     27 CA         25.3189   25.6768   -2.0335 C.3       3 UNK         0.0319 
     28 CB         25.9486   26.7231   -2.9684 C.3       3 UNK        -0.2001 
     29 N          26.2698   24.5786   -1.8687 N.am      3 UNK        -0.4354 
     30 C          25.9948   23.2742   -2.0036 C.2       2 UNK         0.4964 
     31 O          24.8979   22.8359   -2.3502 O.2       2 UNK        -0.5047 
     32 CA         27.1300   22.2831   -1.6789 C.3       2 UNK         0.0288 
     33 CB         27.7711   21.7590   -2.9744 C.3       2 UNK        -0.2113 
     34 N          28.1788   22.8450   -0.8200 N.am      2 UNK        -0.4145 
     35 C          28.0065   23.2260    0.4550 C.2       1 UNK         0.5006 
     36 O          26.9407   23.1147    1.0625 O.2       1 UNK        -0.5103 
     37 C          27.4408   29.5115    1.7128 C.2       5 UNK         0.5055 
     38 O          27.1709   30.5392    2.3382 O.2       5 UNK        -0.5220 
     39 N          27.4445   29.4403    0.3708 N.am      6 UNK        -0.4450 
     40 CA         27.1714   30.5758   -0.5223 C.3       6 UNK         0.0367 
     41 CB         27.0514   30.0854   -1.9718 C.3       6 UNK        -0.1929 
     42 C          28.2104   31.7060   -0.4123 C.2       6 UNK         0.5070 
     43 O          27.8412   32.8792   -0.4712 O.2       6 UNK        -0.5237 
     44 N          29.4776   31.3293   -0.2098 N.am      7 UNK        -0.4739 
     45 CA         30.5260   32.2023    0.3084 C.3       7 UNK         0.0276 
     46 CB         31.8462   31.9128   -0.4254 C.3       7 UNK        -0.1927 
     47 C          30.6372   31.8625    1.7966 C.2       7 UNK         0.5013 
     48 O          30.8595   30.6930    2.1102 O.2       7 UNK        -0.5193 
     49 N          30.4586   32.8577    2.6753 N.am      8 UNK        -0.4253 
     50 CA         30.2408   32.7211    4.1263 C.3       8 UNK         0.0242 
     51 CB         29.7051   34.0616    4.6650 C.3       8 UNK        -0.2000 
     52 C          31.4281   32.1941    4.9702 C.2       8 UNK         0.4948 
     53 O          31.4980   32.4831    6.1662 O.2       8 UNK        -0.5275 
     54 N          32.3263   31.4241    4.3542 N.am      9 UNK        -0.4246 
     55 CA         33.4639   30.7353    4.9561 C.3       9 UNK         0.0261 
     56 CB         34.5719   31.7362    5.3489 C.3       9 UNK        -0.1959 
     57 C          33.9440   29.6713    3.9597 C.2       9 UNK         0.5033 
     58 O          35.1174   29.6631    3.5838 O.2       9 UNK        -0.5390 
     59 N          33.0126   28.8214    3.5025 N.am      10 UNK        -0.4215 
     60 CA         33.2023   27.8662    2.4042 C.3       10 UNK         0.0240 
     61 CB         31.8643   27.1834    2.0972 C.3       10 UNK        -0.1982 
     62 C          34.3176   26.8235    2.6101 C.2       10 UNK         0.4970 
     63 O          34.8608   26.3301    1.6207 O.2       10 UNK        -0.4916 
     64 N          34.6619   26.5318    3.8695 N.am      11 UNK        -0.4279 
     65 CA         35.8460   25.7505    4.2556 C.3       11 UNK         0.1003 
     66 C          37.2143   26.4569    4.0116 C.2       11 UNK         0.5709 
     67 N          37.2681   27.7514    3.7198 N.am      11 UNK        -0.7358 
     68 O          38.2550   25.8061    4.0741 O.2       11 UNK        -0.4999 
     69 C69        35.7308   25.2043    5.7035 C.3       12 UNK        -0.0954 
     70 S70        35.2948   26.4768    6.9425 S.3       12 UNK        -0.2268 
     71 C71        33.8459   25.7273    7.7500 C.3       12 UNK         0.0203 
     72 H72        29.9594   26.7866   -2.2488 H         1 UNK         0.0888 
     73 H73        30.4813   27.7130   -0.8395 H         1 UNK         0.0888 
     74 H74        31.3619   26.2592   -1.3156 H         1 UNK         0.0888 
     75 H75        30.9163   24.5630    0.0993 H         1 UNK         0.3017 
     76 H76        28.7905   24.5351    1.9356 H         1 UNK         0.0873 
     77 H77        29.5458   22.1593    2.4230 H         1 UNK         0.0745 
     78 H78        30.6122   22.2380    1.0467 H         1 UNK         0.0745 
     79 H79        29.5758   23.4750    4.4010 H         1 UNK         0.0705 
     80 H80        30.9706   22.5834    4.9598 H         1 UNK         0.0705 
     81 H81        32.8346   23.7809    6.1087 H         1 UNK         0.1334 
     82 H82        32.0806   27.7774    7.4735 H         1 UNK         0.1417 
     83 H83        29.3519   25.8692    4.7658 H         1 UNK         0.1562 
     84 H84        30.1424   28.9475    6.8318 H         1 UNK         0.0748 
     85 H85        28.7503   27.9299    6.5823 H         1 UNK         0.0748 
     86 H86        27.1054   28.9994    4.4096 H         1 UNK         0.0940 
     87 H87        27.7114   27.3792    4.4778 H         1 UNK         0.0940 
     88 H88        28.7292   27.8670    2.0857 H         1 UNK         0.0703 
     89 H89        27.1915   26.5036    1.3477 H         1 UNK         0.3081 
     90 H90        25.0940   24.9847    2.3973 H         1 UNK         0.0719 
     91 H91        22.9677   26.0462    3.0398 H         1 UNK         0.0809 
     92 H92        22.8269   26.8238    1.4713 H         1 UNK         0.0809 
     93 H93        22.7232   25.0683    1.6033 H         1 UNK         0.0809 
     94 H94        25.5481   24.6191    0.2874 H         1 UNK         0.2990 
     95 H95        24.4026   25.3156   -2.5042 H         1 UNK         0.0690 
     96 H96        26.8531   27.1517   -2.5363 H         1 UNK         0.0788 
     97 H97        25.2534   27.5381   -3.1726 H         1 UNK         0.0788 
     98 H98        26.2150   26.2833   -3.9295 H         1 UNK         0.0788 
     99 H99        27.1863   24.8514   -1.5359 H         1 UNK         0.2993 
    100 H100       26.6801   21.4397   -1.1504 H         1 UNK         0.0949 
    101 H101       27.0221   21.3050   -3.6250 H         1 UNK         0.0767 
    102 H102       28.2519   22.5586   -3.5396 H         1 UNK         0.0767 
    103 H103       28.5209   20.9953   -2.7660 H         1 UNK         0.0767 
    104 H104       29.0856   22.9842   -1.2423 H         1 UNK         0.3013 
    105 H105       27.6315   28.5454   -0.0633 H         1 UNK         0.3121 
    106 H106       26.2072   30.9977   -0.2303 H         1 UNK         0.0774 
    107 H107       27.9348   29.5314   -2.2912 H         1 UNK         0.0815 
    108 H108       26.9223   30.9220   -2.6600 H         1 UNK         0.0815 
    109 H109       26.1803   29.4427   -2.0880 H         1 UNK         0.0815 
    110 H110       29.6608   30.3407   -0.1148 H         1 UNK         0.2987 
    111 H111       30.2671   33.2556    0.1784 H         1 UNK         0.0949 
    112 H112       32.1624   30.8756   -0.3041 H         1 UNK         0.0806 
    113 H113       31.7550   32.1107   -1.4935 H         1 UNK         0.0806 
    114 H114       32.6492   32.5452   -0.0448 H         1 UNK         0.0806 
    115 H115       30.3282   33.7892    2.3077 H         1 UNK         0.3010 
    116 H116       29.4452   31.9835    4.2510 H         1 UNK         0.0829 
    117 H117       29.4169   33.9816    5.7141 H         1 UNK         0.0813 
    118 H118       30.4540   34.8510    4.5912 H         1 UNK         0.0813 
    119 H119       28.8183   34.3847    4.1192 H         1 UNK         0.0813 
    120 H120       32.1146   31.1694    3.3912 H         1 UNK         0.3038 
    121 H121       33.1248   30.2129    5.8531 H         1 UNK         0.0769 
    122 H122       34.9252   32.3013    4.4857 H         1 UNK         0.0811 
    123 H123       35.4315   31.2184    5.7764 H         1 UNK         0.0811 
    124 H124       34.2244   32.4490    6.0963 H         1 UNK         0.0811 
    125 H125       32.0649   28.9154    3.8461 H         1 UNK         0.3204 
    126 H126       33.4847   28.4504    1.5260 H         1 UNK         0.0748 
    127 H127       31.9828   26.4407    1.3091 H         1 UNK         0.0771 
    128 H128       31.4642   26.6716    2.9713 H         1 UNK         0.0771 
    129 H129       31.1220   27.9061    1.7596 H         1 UNK         0.0771 
    130 H130       34.1639   26.9742    4.6274 H         1 UNK         0.2980 
    131 H131       35.8658   24.8774    3.6005 H         1 UNK         0.0545 
    132 H132       38.1659   28.1790    3.5612 H         1 UNK         0.3459 
    133 H133       36.4268   28.3206    3.6685 H         1 UNK         0.3459 
    134 H134       34.9862   24.4105    5.7206 H         1 UNK         0.0616 
    135 H135       36.6581   24.7218    6.0179 H         1 UNK         0.0616 
    136 H136       33.6572   26.2577    8.6845 H         1 UNK         0.0634 
    137 H137       34.0767   24.6983    8.0302 H         1 UNK         0.0634 
@<TRIPOS>BOND
     1    1    2 1    
     2    1   72 1    
     3    1   73 1    
     4    1   74 1    
     5    2    3 2    
     6    2    4 am   BACKBONE|DICT|INTERRES
     7    4    5 1    
     8    4   75 1    
     9    5    6 1    
    10    5   35 1    
    11    5   76 1    
    12    6    7 1    
    13    6   77 1    
    14    6   78 1    
    15    7    8 1    
    16    8    9 1    
    17    8   79 1    
    18    8   80 1    
    19    9   10 ar   
    20    9   14 ar   
    21   10   11 ar   
    22   10   81 1    
    23   11   12 ar   
    24   11   71 1    
    25   12   13 ar   
    26   12   82 1    
    27   13   14 ar   
    28   13   15 1    
    29   14   83 1    
    30   15   16 1    
    31   15   84 1    
    32   15   85 1    
    33   16   17 1    
    34   17   18 1    
    35   17   86 1    
    36   17   87 1    
    37   18   19 1    
    38   18   37 1    
    39   18   88 1    
    40   19   20 am   BACKBONE|DICT|INTERRES
    41   19   89 1    
    42   20   21 2    
    43   20   22 1    
    44   22   23 1    
    45   22   24 1    
    46   22   90 1    
    47   23   91 1    
    48   23   92 1    
    49   23   93 1    
    50   24   25 am   BACKBONE|DICT|INTERRES
    51   24   94 1    
    52   25   26 2    
    53   25   27 1    
    54   27   28 1    
    55   27   29 1    
    56   27   95 1    
    57   28   96 1    
    58   28   97 1    
    59   28   98 1    
    60   29   30 am   BACKBONE|DICT|INTERRES
    61   29   99 1    
    62   30   31 2    
    63   30   32 1    
    64   32   33 1    
    65   32   34 1    
    66   32  100 1    
    67   33  101 1    
    68   33  102 1    
    69   33  103 1    
    70   34   35 am   BACKBONE|DICT|INTERRES
    71   34  104 1    
    72   35   36 2    
    73   37   38 2    
    74   37   39 am   BACKBONE|DICT|INTERRES
    75   39   40 1    
    76   39  105 1    
    77   40   41 1    
    78   40   42 1    
    79   40  106 1    
    80   41  107 1    
    81   41  108 1    
    82   41  109 1    
    83   42   43 2    
    84   42   44 am   BACKBONE|DICT|INTERRES
    85   44   45 1    
    86   44  110 1    
    87   45   46 1    
    88   45   47 1    
    89   45  111 1    
    90   46  112 1    
    91   46  113 1    
    92   46  114 1    
    93   47   48 2    
    94   47   49 am   BACKBONE|DICT|INTERRES
    95   49   50 1    
    96   49  115 1    
    97   50   51 1    
    98   50   52 1    
    99   50  116 1    
   100   51  117 1    
   101   51  118 1    
   102   51  119 1    
   103   52   53 2    
   104   52   54 am   BACKBONE|DICT|INTERRES
   105   54   55 1    
   106   54  120 1    
   107   55   56 1    
   108   55   57 1    
   109   55  121 1    
   110   56  122 1    
   111   56  123 1    
   112   56  124 1    
   113   57   58 2    
   114   57   59 am   BACKBONE|DICT|INTERRES
   115   59   60 1    
   116   59  125 1    
   117   60   61 1    
   118   60   62 1    
   119   60  126 1    
   120   61  127 1    
   121   61  128 1    
   122   61  129 1    
   123   62   63 2    
   124   62   64 am   BACKBONE|DICT|INTERRES
   125   64   65 1    
   126   64  130 1    
   127   65   66 1    
   128   65   69 1    
   129   65  131 1    
   130   66   67 am   BACKBONE|DICT|INTERRES
   131   66   68 2    
   132   67  132 1    
   133   67  133 1    
   134   69   70 1    
   135   69  134 1    
   136   69  135 1    
   137   70   71 1    
   138   71  136 1    
   139   71  137 1    
@<TRIPOS>SUBSTRUCTURE
     1 UNK         1 GROUP             0       ****    0 ROOT    
