@<TRIPOS>MOLECULE
3R136
137   139    1
SMALL
USER_CHARGES


@<TRIPOS>ATOM
      1 CA         27.6834   20.8025    5.3719 C.3       0 UNK        -0.1979 
      2 C          27.7448   21.2744    3.9267 C.2       0 UNK         0.4864 
      3 O          27.4888   20.4865    3.0153 O.2       0 UNK        -0.5359 
      4 N          28.0825   22.5535    3.7122 N.am      1 UNK        -0.4318 
      5 CA         28.2099   23.1832    2.3885 C.3       1 UNK         0.0824 
      6 C6         28.9902   24.5226    2.4464 C.3       12 UNK        -0.0944 
      7 S7         30.5657   24.3880    3.3608 S.3       12 UNK        -0.2672 
      8 C8         31.7784   24.1612    2.0216 C.3       12 UNK         0.0333 
      9 C9         32.1625   25.4750    1.3540 C.ar      12 UNK        -0.0807 
     10 C10        32.7747   26.4871    2.1000 C.ar      12 UNK        -0.0894 
     11 C11        33.1617   27.6870    1.4957 C.ar      12 UNK        -0.0804 
     12 C12        32.9377   27.8657    0.1271 C.ar      12 UNK        -0.0824 
     13 C13        32.3231   26.8637   -0.6302 C.ar      12 UNK        -0.0762 
     14 C14        31.9381   25.6695   -0.0121 C.ar      12 UNK        -0.0782 
     15 C15        32.0859   27.0729   -2.1188 C.3       12 UNK         0.0230 
     16 S16        30.6175   28.1013   -2.4320 S.3       12 UNK        -0.2608 
     17 C17        29.2810   26.9613   -1.9441 C.3       12 UNK        -0.0989 
     18 CA         27.8722   27.5375   -2.2354 C.3       5 UNK         0.0716 
     19 N          26.8589   26.4899   -2.2529 N.am      5 UNK        -0.4135 
     20 C          26.5323   25.7516   -3.3186 C.2       4 UNK         0.5031 
     21 O          27.0939   25.8487   -4.4110 O.2       4 UNK        -0.5229 
     22 CA         25.3949   24.7251   -3.1601 C.3       4 UNK         0.0329 
     23 CB         25.9627   23.2972   -3.1067 C.3       4 UNK        -0.2001 
     24 N          24.5398   24.9409   -1.9894 N.am      4 UNK        -0.4303 
     25 C          23.6704   25.9517   -1.8388 C.2       3 UNK         0.5044 
     26 O          23.5253   26.8488   -2.6700 O.2       3 UNK        -0.5152 
     27 CA         22.7975   25.9620   -0.5674 C.3       3 UNK         0.0319 
     28 CB         21.3070   25.8497   -0.9324 C.3       3 UNK        -0.2001 
     29 N          23.1315   24.8865    0.3714 N.am      3 UNK        -0.4354 
     30 C          24.1279   24.9292    1.2651 C.2       2 UNK         0.4964 
     31 O          24.8342   25.9218    1.4473 O.2       2 UNK        -0.5047 
     32 CA         24.3666   23.6552    2.1022 C.3       2 UNK         0.0288 
     33 CB         23.8506   22.3604    1.4303 C.3       2 UNK        -0.2113 
     34 N          25.7708   23.4939    2.4969 N.am      2 UNK        -0.4145 
     35 C          26.8433   23.3815    1.6940 C.2       1 UNK         0.5006 
     36 O          26.7918   23.4148    0.4627 O.2       1 UNK        -0.5103 
     37 C          27.4497   28.5781   -1.1882 C.2       5 UNK         0.5055 
     38 O          26.8322   28.2164   -0.1832 O.2       5 UNK        -0.5220 
     39 N          27.8308   29.8418   -1.4101 N.am      6 UNK        -0.4450 
     40 CA         27.7032   30.9361   -0.4458 C.3       6 UNK         0.0367 
     41 CB         27.6163   32.2716   -1.2079 C.3       6 UNK        -0.1929 
     42 C          28.8869   30.8880    0.5375 C.2       6 UNK         0.5070 
     43 O          29.7707   31.7452    0.4898 O.2       6 UNK        -0.5237 
     44 N          28.9145   29.8340    1.3610 N.am      7 UNK        -0.4739 
     45 CA         30.0046   29.5048    2.2754 C.3       7 UNK         0.0276 
     46 CB         29.7737   28.0966    2.8442 C.3       7 UNK        -0.1927 
     47 C          30.1632   30.5375    3.4026 C.2       7 UNK         0.5013 
     48 O          29.2491   30.7005    4.2144 O.2       7 UNK        -0.5193 
     49 N          31.3248   31.1997    3.4348 N.am      8 UNK        -0.4253 
     50 CA         31.7467   32.0934    4.5112 C.3       8 UNK         0.0242 
     51 CB         32.8086   33.0603    3.9601 C.3       8 UNK        -0.2000 
     52 C          32.3234   31.2932    5.6894 C.2       8 UNK         0.4948 
     53 O          32.8498   30.1948    5.4918 O.2       8 UNK        -0.5275 
     54 N          32.2877   31.8946    6.8867 N.am      9 UNK        -0.4246 
     55 CA         32.8276   31.3297    8.1319 C.3       9 UNK         0.0261 
     56 CB         32.4793   32.2612    9.3041 C.3       9 UNK        -0.1959 
     57 C          34.3431   31.0487    8.1014 C.2       9 UNK         0.5033 
     58 O          34.8132   30.2014    8.8619 O.2       9 UNK        -0.5390 
     59 N          35.0719   31.7290    7.2041 N.am      10 UNK        -0.4215 
     60 CA         36.5002   31.5438    6.9329 C.3       10 UNK         0.0240 
     61 CB         36.9466   32.5708    5.8792 C.3       10 UNK        -0.1982 
     62 C          36.8865   30.1191    6.4886 C.2       10 UNK         0.4970 
     63 O          38.0315   29.7227    6.7106 O.2       10 UNK        -0.4916 
     64 N          35.9430   29.3736    5.8951 N.am      11 UNK        -0.4279 
     65 CA         36.1105   27.9493    5.5632 C.3       11 UNK         0.1003 
     66 C          35.9841   26.9930    6.7874 C.2       11 UNK         0.5709 
     67 N          35.6032   27.4543    7.9742 N.am      11 UNK        -0.7358 
     68 O          36.2528   25.8006    6.6604 O.2       11 UNK        -0.4999 
     69 C69        35.1748   27.5055    4.4090 C.3       12 UNK        -0.0954 
     70 S70        35.4744   28.4301    2.8628 S.3       12 UNK        -0.2268 
     71 C71        33.7787   28.8077    2.3229 C.3       12 UNK         0.0203 
     72 H72        27.9370   21.5983    6.0721 H         1 UNK         0.0888 
     73 H73        28.3810   19.9799    5.5274 H         1 UNK         0.0888 
     74 H74        26.6804   20.4487    5.6090 H         1 UNK         0.0888 
     75 H75        28.3205   23.1442    4.4969 H         1 UNK         0.3017 
     76 H76        28.7816   22.4974    1.7591 H         1 UNK         0.0873 
     77 H77        28.3911   25.2904    2.9400 H         1 UNK         0.0745 
     78 H78        29.1876   24.8961    1.4395 H         1 UNK         0.0745 
     79 H79        32.6783   23.7101    2.4417 H         1 UNK         0.0705 
     80 H80        31.3880   23.4452    1.2967 H         1 UNK         0.0705 
     81 H81        32.9374   26.3386    3.1576 H         1 UNK         0.1334 
     82 H82        33.2281   28.7912   -0.3515 H         1 UNK         0.1417 
     83 H83        31.4687   24.8902   -0.5970 H         1 UNK         0.1562 
     84 H84        31.9809   26.1170   -2.6346 H         1 UNK         0.0748 
     85 H85        32.9567   27.5604   -2.5599 H         1 UNK         0.0748 
     86 H86        29.3863   26.6960   -0.8900 H         1 UNK         0.0940 
     87 H87        29.4266   26.0356   -2.5035 H         1 UNK         0.0940 
     88 H88        27.8720   28.0267   -3.2125 H         1 UNK         0.0703 
     89 H89        26.3380   26.3926   -1.3899 H         1 UNK         0.3081 
     90 H90        24.7662   24.8060   -4.0495 H         1 UNK         0.0719 
     91 H91        26.6021   23.1497   -2.2356 H         1 UNK         0.0809 
     92 H92        25.1672   22.5527   -3.0705 H         1 UNK         0.0809 
     93 H93        26.5645   23.0824   -3.9910 H         1 UNK         0.0809 
     94 H94        24.6191   24.2645   -1.2436 H         1 UNK         0.2990 
     95 H95        22.9546   26.9250   -0.0764 H         1 UNK         0.0690 
     96 H96        20.6759   25.9049   -0.0452 H         1 UNK         0.0788 
     97 H97        21.0856   24.9130   -1.4455 H         1 UNK         0.0788 
     98 H98        21.0025   26.6627   -1.5932 H         1 UNK         0.0788 
     99 H99        22.5927   24.0353    0.2930 H         1 UNK         0.2993 
    100 H100       23.8058   23.7963    3.0275 H         1 UNK         0.0949 
    101 H101       22.7660   22.3691    1.3175 H         1 UNK         0.0767 
    102 H102       24.2896   22.2095    0.4431 H         1 UNK         0.0767 
    103 H103       24.0942   21.4849    2.0329 H         1 UNK         0.0767 
    104 H104       25.9422   23.4844    3.4920 H         1 UNK         0.3013 
    105 H105       28.3887   30.0354   -2.2303 H         1 UNK         0.3121 
    106 H106       26.7821   30.8171    0.1293 H         1 UNK         0.0774 
    107 H107       26.7477   32.2960   -1.8661 H         1 UNK         0.0815 
    108 H108       28.5034   32.4516   -1.8165 H         1 UNK         0.0815 
    109 H109       27.5209   33.1088   -0.5152 H         1 UNK         0.0815 
    110 H110       28.1487   29.1729    1.3046 H         1 UNK         0.2987 
    111 H111       30.9230   29.4813    1.6865 H         1 UNK         0.0949 
    112 H112       28.8227   28.0218    3.3726 H         1 UNK         0.0806 
    113 H113       29.7800   27.3495    2.0507 H         1 UNK         0.0806 
    114 H114       30.5604   27.8247    3.5492 H         1 UNK         0.0806 
    115 H115       32.0134   31.0061    2.7242 H         1 UNK         0.3010 
    116 H116       30.8854   32.6695    4.8571 H         1 UNK         0.0829 
    117 H117       32.4233   33.6305    3.1143 H         1 UNK         0.0813 
    118 H118       33.1173   33.7815    4.7178 H         1 UNK         0.0813 
    119 H119       33.7041   32.5327    3.6274 H         1 UNK         0.0813 
    120 H120       31.8511   32.8031    6.9593 H         1 UNK         0.3038 
    121 H121       32.3303   30.3715    8.2970 H         1 UNK         0.0769 
    122 H122       32.9262   33.2488    9.1827 H         1 UNK         0.0811 
    123 H123       32.8433   31.8532   10.2484 H         1 UNK         0.0811 
    124 H124       31.4013   32.3887    9.4047 H         1 UNK         0.0811 
    125 H125       34.5901   32.4057    6.6317 H         1 UNK         0.3204 
    126 H126       37.0363   31.7481    7.8620 H         1 UNK         0.0748 
    127 H127       36.7704   33.5919    6.2183 H         1 UNK         0.0771 
    128 H128       38.0143   32.4806    5.6735 H         1 UNK         0.0771 
    129 H129       36.4203   32.4334    4.9335 H         1 UNK         0.0771 
    130 H130       35.0159   29.7564    5.7544 H         1 UNK         0.2980 
    131 H131       37.1328   27.8159    5.2041 H         1 UNK         0.0545 
    132 H132       35.5373   26.8123    8.7475 H         1 UNK         0.3459 
    133 H133       35.3852   28.4343    8.1187 H         1 UNK         0.3459 
    134 H134       35.3137   26.4469    4.1820 H         1 UNK         0.0616 
    135 H135       34.1351   27.6194    4.7194 H         1 UNK         0.0616 
    136 H136       33.8066   29.7326    1.7454 H         1 UNK         0.0634 
    137 H137       33.1477   29.0100    3.1870 H         1 UNK         0.0634 
@<TRIPOS>BOND
     1    1    2 1    
     2    1   72 1    
     3    1   73 1    
     4    1   74 1    
     5    2    3 2    
     6    2    4 am   BACKBONE|DICT|INTERRES
     7    4    5 1    
     8    4   75 1    
     9    5    6 1    
    10    5   35 1    
    11    5   76 1    
    12    6    7 1    
    13    6   77 1    
    14    6   78 1    
    15    7    8 1    
    16    8    9 1    
    17    8   79 1    
    18    8   80 1    
    19    9   10 ar   
    20    9   14 ar   
    21   10   11 ar   
    22   10   81 1    
    23   11   12 ar   
    24   11   71 1    
    25   12   13 ar   
    26   12   82 1    
    27   13   14 ar   
    28   13   15 1    
    29   14   83 1    
    30   15   16 1    
    31   15   84 1    
    32   15   85 1    
    33   16   17 1    
    34   17   18 1    
    35   17   86 1    
    36   17   87 1    
    37   18   19 1    
    38   18   37 1    
    39   18   88 1    
    40   19   20 am   BACKBONE|DICT|INTERRES
    41   19   89 1    
    42   20   21 2    
    43   20   22 1    
    44   22   23 1    
    45   22   24 1    
    46   22   90 1    
    47   23   91 1    
    48   23   92 1    
    49   23   93 1    
    50   24   25 am   BACKBONE|DICT|INTERRES
    51   24   94 1    
    52   25   26 2    
    53   25   27 1    
    54   27   28 1    
    55   27   29 1    
    56   27   95 1    
    57   28   96 1    
    58   28   97 1    
    59   28   98 1    
    60   29   30 am   BACKBONE|DICT|INTERRES
    61   29   99 1    
    62   30   31 2    
    63   30   32 1    
    64   32   33 1    
    65   32   34 1    
    66   32  100 1    
    67   33  101 1    
    68   33  102 1    
    69   33  103 1    
    70   34   35 am   BACKBONE|DICT|INTERRES
    71   34  104 1    
    72   35   36 2    
    73   37   38 2    
    74   37   39 am   BACKBONE|DICT|INTERRES
    75   39   40 1    
    76   39  105 1    
    77   40   41 1    
    78   40   42 1    
    79   40  106 1    
    80   41  107 1    
    81   41  108 1    
    82   41  109 1    
    83   42   43 2    
    84   42   44 am   BACKBONE|DICT|INTERRES
    85   44   45 1    
    86   44  110 1    
    87   45   46 1    
    88   45   47 1    
    89   45  111 1    
    90   46  112 1    
    91   46  113 1    
    92   46  114 1    
    93   47   48 2    
    94   47   49 am   BACKBONE|DICT|INTERRES
    95   49   50 1    
    96   49  115 1    
    97   50   51 1    
    98   50   52 1    
    99   50  116 1    
   100   51  117 1    
   101   51  118 1    
   102   51  119 1    
   103   52   53 2    
   104   52   54 am   BACKBONE|DICT|INTERRES
   105   54   55 1    
   106   54  120 1    
   107   55   56 1    
   108   55   57 1    
   109   55  121 1    
   110   56  122 1    
   111   56  123 1    
   112   56  124 1    
   113   57   58 2    
   114   57   59 am   BACKBONE|DICT|INTERRES
   115   59   60 1    
   116   59  125 1    
   117   60   61 1    
   118   60   62 1    
   119   60  126 1    
   120   61  127 1    
   121   61  128 1    
   122   61  129 1    
   123   62   63 2    
   124   62   64 am   BACKBONE|DICT|INTERRES
   125   64   65 1    
   126   64  130 1    
   127   65   66 1    
   128   65   69 1    
   129   65  131 1    
   130   66   67 am   BACKBONE|DICT|INTERRES
   131   66   68 2    
   132   67  132 1    
   133   67  133 1    
   134   69   70 1    
   135   69  134 1    
   136   69  135 1    
   137   70   71 1    
   138   71  136 1    
   139   71  137 1    
@<TRIPOS>SUBSTRUCTURE
     1 UNK         1 GROUP             0       ****    0 ROOT    
