@<TRIPOS>MOLECULE
3R136
137   139    1
SMALL
USER_CHARGES


@<TRIPOS>ATOM
      1 CA         29.2332   19.7777   -2.6806 C.3       0 UNK        -0.1979 
      2 C          29.1873   21.2980   -2.6395 C.2       0 UNK         0.4864 
      3 O          28.8314   21.9256   -3.6377 O.2       0 UNK        -0.5359 
      4 N          29.5472   21.8917   -1.4931 N.am      1 UNK        -0.4318 
      5 CA         29.5690   23.3441   -1.2685 C.3       1 UNK         0.0824 
      6 C6         30.3365   23.7262    0.0221 C.3       12 UNK        -0.0944 
      7 S7         32.0742   23.1733    0.0010 S.3       12 UNK        -0.2672 
      8 C8         32.0583   21.8134    1.2129 C.3       12 UNK         0.0333 
      9 C9         31.9219   22.3225    2.6407 C.ar      12 UNK        -0.0807 
     10 C10        33.0312   22.8640    3.2962 C.ar      12 UNK        -0.0894 
     11 C11        32.9239   23.3213    4.6125 C.ar      12 UNK        -0.0804 
     12 C12        31.6981   23.2271    5.2764 C.ar      12 UNK        -0.0824 
     13 C13        30.5790   22.6946    4.6295 C.ar      12 UNK        -0.0762 
     14 C14        30.6980   22.2384    3.3131 C.ar      12 UNK        -0.0782 
     15 C15        29.2479   22.5967    5.3614 C.3       12 UNK         0.0230 
     16 S16        28.5901   24.2314    5.8226 S.3       12 UNK        -0.2608 
     17 C17        28.2140   24.9771    4.1980 C.3       12 UNK        -0.0989 
     18 CA         29.1823   26.1107    3.7671 C.3       5 UNK         0.0716 
     19 N          28.9017   26.5084    2.3867 N.am      5 UNK        -0.4135 
     20 C          29.5962   27.4122    1.6806 C.2       4 UNK         0.5031 
     21 O          30.7124   27.8123    2.0072 O.2       4 UNK        -0.5229 
     22 CA         28.9142   28.0164    0.4347 C.3       4 UNK         0.0329 
     23 CB         29.7676   27.8215   -0.8295 C.3       4 UNK        -0.2001 
     24 N          27.5401   27.5490    0.1917 N.am      4 UNK        -0.4303 
     25 C          26.4848   27.8152    0.9803 C.2       3 UNK         0.5044 
     26 O          26.5717   28.4367    2.0396 O.2       3 UNK        -0.5152 
     27 CA         25.1159   27.2485    0.5674 C.3       3 UNK         0.0319 
     28 CB         24.3710   28.2534   -0.3247 C.3       3 UNK        -0.2001 
     29 N          25.1895   25.9516   -0.1092 N.am      3 UNK        -0.4354 
     30 C          25.7191   24.8372    0.4147 C.2       2 UNK         0.4964 
     31 O          26.1977   24.7756    1.5489 O.2       2 UNK        -0.5047 
     32 CA         25.7821   23.5900   -0.4882 C.3       2 UNK         0.0288 
     33 CB         25.0248   23.7294   -1.8296 C.3       2 UNK        -0.2113 
     34 N          27.1742   23.1911   -0.7234 N.am      2 UNK        -0.4145 
     35 C          28.1547   23.9574   -1.2314 C.2       1 UNK         0.5006 
     36 O          27.9869   25.1085   -1.6394 O.2       1 UNK        -0.5103 
     37 C          29.1247   27.3248    4.7320 C.2       5 UNK         0.5055 
     38 O          29.9077   27.3678    5.6814 O.2       5 UNK        -0.5220 
     39 N          28.2257   28.2894    4.4687 N.am      6 UNK        -0.4450 
     40 CA         28.0284   29.4906    5.2869 C.3       6 UNK         0.0367 
     41 CB         26.7098   29.3599    6.0665 C.3       6 UNK        -0.1929 
     42 C          28.0384   30.7891    4.4632 C.2       6 UNK         0.5070 
     43 O          28.5179   31.8070    4.9637 O.2       6 UNK        -0.5237 
     44 N          27.5095   30.7573    3.2321 N.am      7 UNK        -0.4739 
     45 CA         27.4706   31.8980    2.3116 C.3       7 UNK         0.0276 
     46 CB         26.4820   31.5907    1.1737 C.3       7 UNK        -0.1927 
     47 C          28.8595   32.2247    1.7388 C.2       7 UNK         0.5013 
     48 O          29.7590   31.3842    1.7912 O.2       7 UNK        -0.5193 
     49 N          29.0034   33.4430    1.1951 N.am      8 UNK        -0.4253 
     50 CA         30.2169   33.9820    0.5583 C.3       8 UNK         0.0242 
     51 CB         30.4832   33.2650   -0.7835 C.3       8 UNK        -0.2000 
     52 C          31.4464   33.9779    1.4921 C.2       8 UNK         0.4948 
     53 O          32.5550   33.6698    1.0523 O.2       8 UNK        -0.5275 
     54 N          31.2058   34.3038    2.7717 N.am      9 UNK        -0.4246 
     55 CA         32.1472   34.2646    3.8990 C.3       9 UNK         0.0261 
     56 CB         33.3376   35.2247    3.6807 C.3       9 UNK        -0.1959 
     57 C          32.5880   32.8395    4.3001 C.2       9 UNK         0.5033 
     58 O          33.6275   32.6948    4.9472 O.2       9 UNK        -0.5390 
     59 N          31.7711   31.8299    3.9588 N.am      10 UNK        -0.4215 
     60 CA         31.9202   30.4038    4.2667 C.3       10 UNK         0.0240 
     61 CB         31.9559   30.1729    5.7960 C.3       10 UNK        -0.1982 
     62 C          33.1007   29.7427    3.5294 C.2       10 UNK         0.4970 
     63 O          33.7113   30.3456    2.6435 O.2       10 UNK        -0.4916 
     64 N          33.3800   28.4881    3.8961 N.am      11 UNK        -0.4279 
     65 CA         34.4460   27.6503    3.3295 C.3       11 UNK         0.1003 
     66 C          35.9006   28.0619    3.7083 C.2       11 UNK         0.5709 
     67 N          36.1150   29.0036    4.6199 N.am      11 UNK        -0.7358 
     68 O          36.8546   27.5226    3.1522 O.2       11 UNK        -0.4999 
     69 C69        34.1667   26.1491    3.5980 C.3       12 UNK        -0.0954 
     70 S70        34.0321   25.7380    5.3731 S.3       12 UNK        -0.2268 
     71 C71        34.1289   23.9231    5.3184 C.3       12 UNK         0.0203 
     72 H72        28.2425   19.3783   -2.8960 H         1 UNK         0.0888 
     73 H73        29.9129   19.4445   -3.4644 H         1 UNK         0.0888 
     74 H74        29.5721   19.3531   -1.7358 H         1 UNK         0.0888 
     75 H75        29.8568   21.3226   -0.7197 H         1 UNK         0.3017 
     76 H76        30.0870   23.7996   -2.1156 H         1 UNK         0.0873 
     77 H77        30.3529   24.8091    0.1510 H         1 UNK         0.0745 
     78 H78        29.8276   23.3343    0.9029 H         1 UNK         0.0745 
     79 H79        31.2588   21.1119    0.9719 H         1 UNK         0.0705 
     80 H80        32.9894   21.2525    1.1193 H         1 UNK         0.0705 
     81 H81        33.9770   22.9355    2.7763 H         1 UNK         0.1334 
     82 H82        31.6100   23.5845    6.2936 H         1 UNK         0.1417 
     83 H83        29.8381   21.8140    2.8133 H         1 UNK         0.1562 
     84 H84        29.3870   22.0066    6.2683 H         1 UNK         0.0748 
     85 H85        28.5051   22.0663    4.7634 H         1 UNK         0.0748 
     86 H86        27.1863   25.3452    4.2257 H         1 UNK         0.0940 
     87 H87        28.2173   24.1866    3.4456 H         1 UNK         0.0940 
     88 H88        30.2024   25.7201    3.7887 H         1 UNK         0.0703 
     89 H89        28.0070   26.2120    2.0191 H         1 UNK         0.3081 
     90 H90        28.8540   29.0905    0.6201 H         1 UNK         0.0719 
     91 H91        30.7570   28.2630   -0.7012 H         1 UNK         0.0809 
     92 H92        29.3114   28.3021   -1.6948 H         1 UNK         0.0809 
     93 H93        29.9135   26.7694   -1.0678 H         1 UNK         0.0809 
     94 H94        27.4053   26.9556   -0.6197 H         1 UNK         0.2990 
     95 H95        24.5348   27.1073    1.4811 H         1 UNK         0.0690 
     96 H96        23.3596   27.9131   -0.5481 H         1 UNK         0.0788 
     97 H97        24.8887   28.4160   -1.2710 H         1 UNK         0.0788 
     98 H98        24.2826   29.2224    0.1690 H         1 UNK         0.0788 
     99 H99        24.8475   25.9128   -1.0587 H         1 UNK         0.2993 
    100 H100       25.3128   22.7835    0.0773 H         1 UNK         0.0949 
    101 H101       25.0560   22.7945   -2.3896 H         1 UNK         0.0767 
    102 H102       23.9721   23.9658   -1.6678 H         1 UNK         0.0767 
    103 H103       25.4490   24.5040   -2.4697 H         1 UNK         0.0767 
    104 H104       27.4234   22.2675   -0.4002 H         1 UNK         0.3013 
    105 H105       27.6405   28.2040    3.6428 H         1 UNK         0.3121 
    106 H106       28.8383   29.5847    6.0132 H         1 UNK         0.0774 
    107 H107       25.8552   29.2517    5.3974 H         1 UNK         0.0815 
    108 H108       26.5324   30.2403    6.6858 H         1 UNK         0.0815 
    109 H109       26.7279   28.4954    6.7303 H         1 UNK         0.0815 
    110 H110       27.1397   29.8838    2.8636 H         1 UNK         0.2987 
    111 H111       27.1106   32.7680    2.8654 H         1 UNK         0.0949 
    112 H112       26.8424   30.7851    0.5333 H         1 UNK         0.0806 
    113 H113       25.5054   31.2997    1.5613 H         1 UNK         0.0806 
    114 H114       26.3290   32.4634    0.5378 H         1 UNK         0.0806 
    115 H115       28.2065   34.0655    1.2042 H         1 UNK         0.3010 
    116 H116       30.0114   35.0303    0.3355 H         1 UNK         0.0829 
    117 H117       30.7489   32.2175   -0.6359 H         1 UNK         0.0813 
    118 H118       29.6090   33.3006   -1.4335 H         1 UNK         0.0813 
    119 H119       31.3059   33.7358   -1.3231 H         1 UNK         0.0813 
    120 H120       30.2542   34.5423    3.0161 H         1 UNK         0.3038 
    121 H121       31.5876   34.6421    4.7562 H         1 UNK         0.0769 
    122 H122       33.9271   35.3290    4.5924 H         1 UNK         0.0811 
    123 H123       34.0115   34.8658    2.9024 H         1 UNK         0.0811 
    124 H124       32.9991   36.2220    3.4004 H         1 UNK         0.0811 
    125 H125       30.9920   32.0359    3.3432 H         1 UNK         0.3204 
    126 H126       31.0190   29.9261    3.8793 H         1 UNK         0.0748 
    127 H127       31.8529   29.1178    6.0475 H         1 UNK         0.0771 
    128 H128       32.8891   30.5197    6.2404 H         1 UNK         0.0771 
    129 H129       31.1371   30.6954    6.2909 H         1 UNK         0.0771 
    130 H130       32.8297   28.0535    4.6222 H         1 UNK         0.2980 
    131 H131       34.3938   27.7817    2.2471 H         1 UNK         0.0545 
    132 H132       35.3404   29.4648    5.0684 H         1 UNK         0.3459 
    133 H133       37.0612   29.2624    4.8497 H         1 UNK         0.3459 
    134 H134       33.2296   25.8649    3.1157 H         1 UNK         0.0616 
    135 H135       34.9371   25.5257    3.1405 H         1 UNK         0.0616 
    136 H136       34.1819   23.5415    6.3390 H         1 UNK         0.0634 
    137 H137       35.0574   23.6231    4.8300 H         1 UNK         0.0634 
@<TRIPOS>BOND
     1    1    2 1    
     2    1   72 1    
     3    1   73 1    
     4    1   74 1    
     5    2    3 2    
     6    2    4 am   BACKBONE|DICT|INTERRES
     7    4    5 1    
     8    4   75 1    
     9    5    6 1    
    10    5   35 1    
    11    5   76 1    
    12    6    7 1    
    13    6   77 1    
    14    6   78 1    
    15    7    8 1    
    16    8    9 1    
    17    8   79 1    
    18    8   80 1    
    19    9   10 ar   
    20    9   14 ar   
    21   10   11 ar   
    22   10   81 1    
    23   11   12 ar   
    24   11   71 1    
    25   12   13 ar   
    26   12   82 1    
    27   13   14 ar   
    28   13   15 1    
    29   14   83 1    
    30   15   16 1    
    31   15   84 1    
    32   15   85 1    
    33   16   17 1    
    34   17   18 1    
    35   17   86 1    
    36   17   87 1    
    37   18   19 1    
    38   18   37 1    
    39   18   88 1    
    40   19   20 am   BACKBONE|DICT|INTERRES
    41   19   89 1    
    42   20   21 2    
    43   20   22 1    
    44   22   23 1    
    45   22   24 1    
    46   22   90 1    
    47   23   91 1    
    48   23   92 1    
    49   23   93 1    
    50   24   25 am   BACKBONE|DICT|INTERRES
    51   24   94 1    
    52   25   26 2    
    53   25   27 1    
    54   27   28 1    
    55   27   29 1    
    56   27   95 1    
    57   28   96 1    
    58   28   97 1    
    59   28   98 1    
    60   29   30 am   BACKBONE|DICT|INTERRES
    61   29   99 1    
    62   30   31 2    
    63   30   32 1    
    64   32   33 1    
    65   32   34 1    
    66   32  100 1    
    67   33  101 1    
    68   33  102 1    
    69   33  103 1    
    70   34   35 am   BACKBONE|DICT|INTERRES
    71   34  104 1    
    72   35   36 2    
    73   37   38 2    
    74   37   39 am   BACKBONE|DICT|INTERRES
    75   39   40 1    
    76   39  105 1    
    77   40   41 1    
    78   40   42 1    
    79   40  106 1    
    80   41  107 1    
    81   41  108 1    
    82   41  109 1    
    83   42   43 2    
    84   42   44 am   BACKBONE|DICT|INTERRES
    85   44   45 1    
    86   44  110 1    
    87   45   46 1    
    88   45   47 1    
    89   45  111 1    
    90   46  112 1    
    91   46  113 1    
    92   46  114 1    
    93   47   48 2    
    94   47   49 am   BACKBONE|DICT|INTERRES
    95   49   50 1    
    96   49  115 1    
    97   50   51 1    
    98   50   52 1    
    99   50  116 1    
   100   51  117 1    
   101   51  118 1    
   102   51  119 1    
   103   52   53 2    
   104   52   54 am   BACKBONE|DICT|INTERRES
   105   54   55 1    
   106   54  120 1    
   107   55   56 1    
   108   55   57 1    
   109   55  121 1    
   110   56  122 1    
   111   56  123 1    
   112   56  124 1    
   113   57   58 2    
   114   57   59 am   BACKBONE|DICT|INTERRES
   115   59   60 1    
   116   59  125 1    
   117   60   61 1    
   118   60   62 1    
   119   60  126 1    
   120   61  127 1    
   121   61  128 1    
   122   61  129 1    
   123   62   63 2    
   124   62   64 am   BACKBONE|DICT|INTERRES
   125   64   65 1    
   126   64  130 1    
   127   65   66 1    
   128   65   69 1    
   129   65  131 1    
   130   66   67 am   BACKBONE|DICT|INTERRES
   131   66   68 2    
   132   67  132 1    
   133   67  133 1    
   134   69   70 1    
   135   69  134 1    
   136   69  135 1    
   137   70   71 1    
   138   71  136 1    
   139   71  137 1    
@<TRIPOS>SUBSTRUCTURE
     1 UNK         1 GROUP             0       ****    0 ROOT    
