@<TRIPOS>MOLECULE
3R136
137   139    1
SMALL
USER_CHARGES


@<TRIPOS>ATOM
      1 CA         27.9731   28.2113   -1.4845 C.3       0 UNK        -0.1979 
      2 C          28.0467   26.7760   -0.9888 C.2       0 UNK         0.4864 
      3 O          27.0083   26.1685   -0.7257 O.2       0 UNK        -0.5359 
      4 N          29.2636   26.2264   -0.8675 N.am      1 UNK        -0.4318 
      5 CA         29.5868   24.8857   -0.3472 C.3       1 UNK         0.0824 
      6 C6         31.1222   24.6611   -0.4044 C.3       12 UNK        -0.0944 
      7 S7         31.7109   23.1544    0.4433 S.3       12 UNK        -0.2672 
      8 C8         32.5743   23.8311    1.8987 C.3       12 UNK         0.0333 
      9 C9         31.6476   24.4413    2.9466 C.ar      12 UNK        -0.0807 
     10 C10        32.0245   25.6253    3.5879 C.ar      12 UNK        -0.0894 
     11 C11        31.2331   26.1704    4.6025 C.ar      12 UNK        -0.0804 
     12 C12        30.0522   25.5233    4.9750 C.ar      12 UNK        -0.0824 
     13 C13        29.6615   24.3360    4.3472 C.ar      12 UNK        -0.0762 
     14 C14        30.4631   23.8009    3.3338 C.ar      12 UNK        -0.0782 
     15 C15        28.4084   23.5988    4.8058 C.3       12 UNK         0.0230 
     16 S16        26.9624   23.9255    3.7456 S.3       12 UNK        -0.2608 
     17 C17        26.6631   25.6972    4.0588 C.3       12 UNK        -0.0989 
     18 CA         26.8999   26.5260    2.7674 C.3       5 UNK         0.0716 
     19 N          25.8399   26.3674    1.7607 N.am      5 UNK        -0.4135 
     20 C          24.5466   26.6968    1.8807 C.2       4 UNK         0.5031 
     21 O          24.0359   27.1329    2.9126 O.2       4 UNK        -0.5229 
     22 CA         23.6844   26.5880    0.6122 C.3       4 UNK         0.0329 
     23 CB         23.6617   27.9367   -0.1276 C.3       4 UNK        -0.2001 
     24 N          24.1086   25.5408   -0.3217 N.am      4 UNK        -0.4303 
     25 C          23.9653   24.2272   -0.1032 C.2       3 UNK         0.5044 
     26 O          23.5457   23.7469    0.9500 O.2       3 UNK        -0.5152 
     27 CA         24.2931   23.2957   -1.2750 C.3       3 UNK         0.0319 
     28 CB         23.2112   23.4100   -2.3703 C.3       3 UNK        -0.2001 
     29 N          25.6315   23.5292   -1.8290 N.am      3 UNK        -0.4354 
     30 C          26.2718   22.6355   -2.6007 C.2       2 UNK         0.4964 
     31 O          25.7917   21.5460   -2.9187 O.2       2 UNK        -0.5047 
     32 CA         27.6768   22.9865   -3.1286 C.3       2 UNK         0.0288 
     33 CB         27.5844   23.5368   -4.5617 C.3       2 UNK        -0.2113 
     34 N          28.4334   23.9311   -2.3068 N.am      2 UNK        -0.4145 
     35 C          28.8073   23.7350   -1.0338 C.2       1 UNK         0.5006 
     36 O          28.5403   22.7139   -0.3982 O.2       1 UNK        -0.5103 
     37 C          27.2616   28.0049    3.0390 C.2       5 UNK         0.5055 
     38 O          28.0355   28.2878    3.9548 O.2       5 UNK        -0.5220 
     39 N          26.7821   28.9265    2.1908 N.am      6 UNK        -0.4450 
     40 CA         27.1117   30.3541    2.1873 C.3       6 UNK         0.0367 
     41 CB         25.9503   31.1269    1.5345 C.3       6 UNK        -0.1929 
     42 C          28.4642   30.6176    1.4931 C.2       6 UNK         0.5070 
     43 O          28.5558   31.4716    0.6110 O.2       6 UNK        -0.5237 
     44 N          29.4881   29.8503    1.8849 N.am      7 UNK        -0.4739 
     45 CA         30.8374   29.8774    1.3138 C.3       7 UNK         0.0276 
     46 CB         31.4278   28.4636    1.4016 C.3       7 UNK        -0.1927 
     47 C          31.7613   30.9145    1.9815 C.2       7 UNK         0.5013 
     48 O          32.9001   31.0710    1.5368 O.2       7 UNK        -0.5193 
     49 N          31.2587   31.6008    3.0209 N.am      8 UNK        -0.4253 
     50 CA         31.8619   32.7309    3.7356 C.3       8 UNK         0.0242 
     51 CB         31.7768   34.0070    2.8670 C.3       8 UNK        -0.2000 
     52 C          33.2796   32.4214    4.2493 C.2       8 UNK         0.4948 
     53 O          33.4155   31.6659    5.2131 O.2       8 UNK        -0.5275 
     54 N          34.3000   32.9855    3.5853 N.am      9 UNK        -0.4246 
     55 CA         35.7276   32.8730    3.9023 C.3       9 UNK         0.0261 
     56 CB         36.5371   33.6776    2.8727 C.3       9 UNK        -0.1959 
     57 C          36.2661   31.4347    4.0000 C.2       9 UNK         0.5033 
     58 O          37.2421   31.2179    4.7195 O.2       9 UNK        -0.5390 
     59 N          35.6052   30.4714    3.3396 N.am      10 UNK        -0.4215 
     60 CA         35.8805   29.0349    3.4674 C.3       10 UNK         0.0240 
     61 CB         34.9959   28.2619    2.4793 C.3       10 UNK        -0.1982 
     62 C          35.6880   28.4850    4.8969 C.2       10 UNK         0.4970 
     63 O          36.3240   27.4881    5.2403 O.2       10 UNK        -0.4916 
     64 N          34.8428   29.1485    5.6960 N.am      11 UNK        -0.4279 
     65 CA         34.6324   28.8944    7.1278 C.3       11 UNK         0.1003 
     66 C          35.2456   30.0125    8.0237 C.2       11 UNK         0.5709 
     67 N          36.1052   30.8886    7.5139 N.am      11 UNK        -0.7358 
     68 O          34.9638   30.0753    9.2183 O.2       11 UNK        -0.4999 
     69 C69        33.1302   28.6376    7.4302 C.3       12 UNK        -0.0954 
     70 S70        32.5949   27.0015    6.8325 S.3       12 UNK        -0.2268 
     71 C71        31.6743   27.4327    5.3277 C.3       12 UNK         0.0203 
     72 H72        27.5741   28.2365   -2.4980 H         1 UNK         0.0888 
     73 H73        27.3136   28.7976   -0.8463 H         1 UNK         0.0888 
     74 H74        28.9510   28.6924   -1.4877 H         1 UNK         0.0888 
     75 H75        30.0640   26.7782   -1.1409 H         1 UNK         0.3017 
     76 H76        29.2841   24.8810    0.7019 H         1 UNK         0.0873 
     77 H77        31.6369   25.5184    0.0321 H         1 UNK         0.0745 
     78 H78        31.4584   24.6143   -1.4419 H         1 UNK         0.0745 
     79 H79        33.1358   23.0240    2.3706 H         1 UNK         0.0705 
     80 H80        33.3131   24.5594    1.5601 H         1 UNK         0.0705 
     81 H81        32.9515   26.1114    3.3175 H         1 UNK         0.1334 
     82 H82        29.4534   25.9354    5.7754 H         1 UNK         0.1417 
     83 H83        30.1727   22.8727    2.8603 H         1 UNK         0.1562 
     84 H84        28.1656   23.8606    5.8370 H         1 UNK         0.0748 
     85 H85        28.6015   22.5250    4.8085 H         1 UNK         0.0748 
     86 H86        27.3068   26.0253    4.8741 H         1 UNK         0.0940 
     87 H87        25.6480   25.8228    4.4355 H         1 UNK         0.0940 
     88 H88        27.8012   26.1345    2.2931 H         1 UNK         0.0703 
     89 H89        26.1637   26.0773    0.8383 H         1 UNK         0.3081 
     90 H90        22.6654   26.3599    0.9327 H         1 UNK         0.0719 
     91 H91        22.9578   27.9187   -0.9598 H         1 UNK         0.0809 
     92 H92        24.6430   28.1978   -0.5258 H         1 UNK         0.0809 
     93 H93        23.3514   28.7447    0.5369 H         1 UNK         0.0809 
     94 H94        24.4819   25.8500   -1.2077 H         1 UNK         0.2990 
     95 H95        24.2659   22.2787   -0.8767 H         1 UNK         0.0690 
     96 H96        23.3178   22.6307   -3.1246 H         1 UNK         0.0788 
     97 H97        23.2514   24.3733   -2.8799 H         1 UNK         0.0788 
     98 H98        22.2114   23.3057   -1.9462 H         1 UNK         0.0788 
     99 H99        26.1095   24.3802   -1.5506 H         1 UNK         0.2993 
    100 H100       28.2466   22.0551   -3.1564 H         1 UNK         0.0949 
    101 H101       28.5735   23.6889   -4.9944 H         1 UNK         0.0767 
    102 H102       27.0520   22.8425   -5.2136 H         1 UNK         0.0767 
    103 H103       27.0514   24.4880   -4.5944 H         1 UNK         0.0767 
    104 H104       28.6820   24.8077   -2.7405 H         1 UNK         0.3013 
    105 H105       26.1788   28.6065    1.4493 H         1 UNK         0.3121 
    106 H106       27.2052   30.6990    3.2193 H         1 UNK         0.0774 
    107 H107       26.1304   32.2024    1.5645 H         1 UNK         0.0815 
    108 H108       25.8148   30.8480    0.4887 H         1 UNK         0.0815 
    109 H109       25.0099   30.9445    2.0552 H         1 UNK         0.0815 
    110 H110       29.3152   29.1896    2.6363 H         1 UNK         0.2987 
    111 H111       30.7701   30.1483    0.2577 H         1 UNK         0.0949 
    112 H112       31.5852   28.1670    2.4360 H         1 UNK         0.0806 
    113 H113       30.7685   27.7270    0.9463 H         1 UNK         0.0806 
    114 H114       32.3863   28.4045    0.8848 H         1 UNK         0.0806 
    115 H115       30.3308   31.3428    3.3236 H         1 UNK         0.3010 
    116 H116       31.2516   32.8986    4.6245 H         1 UNK         0.0829 
    117 H117       30.7385   34.2584    2.6495 H         1 UNK         0.0813 
    118 H118       32.2093   34.8668    3.3810 H         1 UNK         0.0813 
    119 H119       32.2890   33.8946    1.9106 H         1 UNK         0.0813 
    120 H120       34.0681   33.5515    2.7819 H         1 UNK         0.3038 
    121 H121       35.8710   33.3312    4.8830 H         1 UNK         0.0769 
    122 H122       37.6043   33.6368    3.0959 H         1 UNK         0.0811 
    123 H123       36.2497   34.7292    2.8736 H         1 UNK         0.0811 
    124 H124       36.4007   33.2912    1.8618 H         1 UNK         0.0811 
    125 H125       34.8089   30.7391    2.7718 H         1 UNK         0.3204 
    126 H126       36.9252   28.8747    3.1930 H         1 UNK         0.0748 
    127 H127       35.2224   27.1950    2.5012 H         1 UNK         0.0771 
    128 H128       33.9424   28.3787    2.7267 H         1 UNK         0.0771 
    129 H129       35.1431   28.6054    1.4551 H         1 UNK         0.0771 
    130 H130       34.3826   29.9853    5.3478 H         1 UNK         0.2980 
    131 H131       35.1811   27.9979    7.4209 H         1 UNK         0.0545 
    132 H132       36.4003   30.8373    6.5465 H         1 UNK         0.3459 
    133 H133       36.4948   31.5944    8.1178 H         1 UNK         0.3459 
    134 H134       32.5047   29.4236    7.0030 H         1 UNK         0.0616 
    135 H135       32.9368   28.6465    8.5040 H         1 UNK         0.0616 
    136 H136       30.8067   28.0413    5.5878 H         1 UNK         0.0634 
    137 H137       32.3060   28.0457    4.6842 H         1 UNK         0.0634 
@<TRIPOS>BOND
     1    1    2 1    
     2    1   72 1    
     3    1   73 1    
     4    1   74 1    
     5    2    3 2    
     6    2    4 am   BACKBONE|DICT|INTERRES
     7    4    5 1    
     8    4   75 1    
     9    5    6 1    
    10    5   35 1    
    11    5   76 1    
    12    6    7 1    
    13    6   77 1    
    14    6   78 1    
    15    7    8 1    
    16    8    9 1    
    17    8   79 1    
    18    8   80 1    
    19    9   10 ar   
    20    9   14 ar   
    21   10   11 ar   
    22   10   81 1    
    23   11   12 ar   
    24   11   71 1    
    25   12   13 ar   
    26   12   82 1    
    27   13   14 ar   
    28   13   15 1    
    29   14   83 1    
    30   15   16 1    
    31   15   84 1    
    32   15   85 1    
    33   16   17 1    
    34   17   18 1    
    35   17   86 1    
    36   17   87 1    
    37   18   19 1    
    38   18   37 1    
    39   18   88 1    
    40   19   20 am   BACKBONE|DICT|INTERRES
    41   19   89 1    
    42   20   21 2    
    43   20   22 1    
    44   22   23 1    
    45   22   24 1    
    46   22   90 1    
    47   23   91 1    
    48   23   92 1    
    49   23   93 1    
    50   24   25 am   BACKBONE|DICT|INTERRES
    51   24   94 1    
    52   25   26 2    
    53   25   27 1    
    54   27   28 1    
    55   27   29 1    
    56   27   95 1    
    57   28   96 1    
    58   28   97 1    
    59   28   98 1    
    60   29   30 am   BACKBONE|DICT|INTERRES
    61   29   99 1    
    62   30   31 2    
    63   30   32 1    
    64   32   33 1    
    65   32   34 1    
    66   32  100 1    
    67   33  101 1    
    68   33  102 1    
    69   33  103 1    
    70   34   35 am   BACKBONE|DICT|INTERRES
    71   34  104 1    
    72   35   36 2    
    73   37   38 2    
    74   37   39 am   BACKBONE|DICT|INTERRES
    75   39   40 1    
    76   39  105 1    
    77   40   41 1    
    78   40   42 1    
    79   40  106 1    
    80   41  107 1    
    81   41  108 1    
    82   41  109 1    
    83   42   43 2    
    84   42   44 am   BACKBONE|DICT|INTERRES
    85   44   45 1    
    86   44  110 1    
    87   45   46 1    
    88   45   47 1    
    89   45  111 1    
    90   46  112 1    
    91   46  113 1    
    92   46  114 1    
    93   47   48 2    
    94   47   49 am   BACKBONE|DICT|INTERRES
    95   49   50 1    
    96   49  115 1    
    97   50   51 1    
    98   50   52 1    
    99   50  116 1    
   100   51  117 1    
   101   51  118 1    
   102   51  119 1    
   103   52   53 2    
   104   52   54 am   BACKBONE|DICT|INTERRES
   105   54   55 1    
   106   54  120 1    
   107   55   56 1    
   108   55   57 1    
   109   55  121 1    
   110   56  122 1    
   111   56  123 1    
   112   56  124 1    
   113   57   58 2    
   114   57   59 am   BACKBONE|DICT|INTERRES
   115   59   60 1    
   116   59  125 1    
   117   60   61 1    
   118   60   62 1    
   119   60  126 1    
   120   61  127 1    
   121   61  128 1    
   122   61  129 1    
   123   62   63 2    
   124   62   64 am   BACKBONE|DICT|INTERRES
   125   64   65 1    
   126   64  130 1    
   127   65   66 1    
   128   65   69 1    
   129   65  131 1    
   130   66   67 am   BACKBONE|DICT|INTERRES
   131   66   68 2    
   132   67  132 1    
   133   67  133 1    
   134   69   70 1    
   135   69  134 1    
   136   69  135 1    
   137   70   71 1    
   138   71  136 1    
   139   71  137 1    
@<TRIPOS>SUBSTRUCTURE
     1 UNK         1 GROUP             0       ****    0 ROOT    
