@<TRIPOS>MOLECULE
3R136
137   139    1
SMALL
USER_CHARGES


@<TRIPOS>ATOM
      1 CA         28.5277   19.9833   -3.4050 C.3       0 UNK        -0.1979 
      2 C          29.3774   20.6720   -2.3471 C.2       0 UNK         0.4864 
      3 O          30.5730   20.3914   -2.2450 O.2       0 UNK        -0.5359 
      4 N          28.7679   21.5626   -1.5543 N.am      1 UNK        -0.4318 
      5 CA         29.4333   22.3523   -0.5125 C.3       1 UNK         0.0824 
      6 C6         28.4174   23.0082    0.4544 C.3       12 UNK        -0.0944 
      7 S7         27.3120   21.8050    1.2631 S.3       12 UNK        -0.2672 
      8 C8         28.3736   21.1411    2.5850 C.3       12 UNK         0.0333 
      9 C9         28.6598   22.1688    3.6697 C.ar      12 UNK        -0.0807 
     10 C10        29.9181   22.7706    3.7636 C.ar      12 UNK        -0.0894 
     11 C11        30.1905   23.6891    4.7815 C.ar      12 UNK        -0.0804 
     12 C12        29.1991   23.9931    5.7193 C.ar      12 UNK        -0.0824 
     13 C13        27.9280   23.4162    5.6198 C.ar      12 UNK        -0.0762 
     14 C14        27.6678   22.5006    4.5959 C.ar      12 UNK        -0.0782 
     15 C15        26.8299   23.7734    6.6145 C.3       12 UNK         0.0230 
     16 S16        26.4284   25.5527    6.6267 S.3       12 UNK        -0.2608 
     17 C17        26.0797   25.9036    4.8663 C.3       12 UNK        -0.0989 
     18 CA         27.2705   26.6354    4.1858 C.3       5 UNK         0.0716 
     19 N          27.3222   26.4430    2.7347 N.am      5 UNK        -0.4135 
     20 C          26.4348   26.8914    1.8361 C.2       4 UNK         0.5031 
     21 O          25.3814   27.4578    2.1321 O.2       4 UNK        -0.5229 
     22 CA         26.8021   26.6703    0.3506 C.3       4 UNK         0.0329 
     23 CB         25.9390   27.5159   -0.6086 C.3       4 UNK        -0.2001 
     24 N          28.2304   26.8598    0.0361 N.am      4 UNK        -0.4303 
     25 C          28.9855   27.9321    0.3293 C.2       3 UNK         0.5044 
     26 O          28.5896   28.8851    1.0006 O.2       3 UNK        -0.5152 
     27 CA         30.4301   27.9320   -0.1941 C.3       3 UNK         0.0319 
     28 CB         31.3368   28.9066    0.5803 C.3       3 UNK        -0.2001 
     29 N          31.0136   26.5881   -0.1796 N.am      3 UNK        -0.4354 
     30 C          31.9468   26.1630   -1.0422 C.2       2 UNK         0.4964 
     31 O          32.4110   26.8549   -1.9491 O.2       2 UNK        -0.5047 
     32 CA         32.4580   24.7216   -0.8691 C.3       2 UNK         0.0288 
     33 CB         33.6366   24.6905    0.1171 C.3       2 UNK        -0.2113 
     34 N          31.4385   23.7615   -0.4316 N.am      2 UNK        -0.4145 
     35 C          30.3447   23.4303   -1.1334 C.2       1 UNK         0.5006 
     36 O          30.0267   23.9600   -2.2015 O.2       1 UNK        -0.5103 
     37 C          27.4035   28.1278    4.5653 C.2       5 UNK         0.5055 
     38 O          26.4982   28.7077    5.1689 O.2       5 UNK        -0.5220 
     39 N          28.5564   28.7079    4.1997 N.am      6 UNK        -0.4450 
     40 CA         28.9975   30.0730    4.5049 C.3       6 UNK         0.0367 
     41 CB         29.2371   30.2441    6.0209 C.3       6 UNK        -0.1929 
     42 C          28.0908   31.1683    3.9098 C.2       6 UNK         0.5070 
     43 O          27.8055   32.1638    4.5777 O.2       6 UNK        -0.5237 
     44 N          27.6632   30.9785    2.6544 N.am      7 UNK        -0.4739 
     45 CA         26.8769   31.9563    1.8942 C.3       7 UNK         0.0276 
     46 CB         26.1473   31.2345    0.7513 C.3       7 UNK        -0.1927 
     47 C          27.7336   33.1100    1.3398 C.2       7 UNK         0.5013 
     48 O          27.1866   34.1678    1.0242 O.2       7 UNK        -0.5193 
     49 N          29.0478   32.8853    1.2297 N.am      8 UNK        -0.4253 
     50 CA         30.0558   33.8574    0.8194 C.3       8 UNK         0.0242 
     51 CB         30.5456   33.5127   -0.6032 C.3       8 UNK        -0.2000 
     52 C          31.1501   33.8398    1.8954 C.2       8 UNK         0.4948 
     53 O          30.8954   34.2925    3.0130 O.2       8 UNK        -0.5275 
     54 N          32.3254   33.2855    1.5706 N.am      9 UNK        -0.4246 
     55 CA         33.3563   32.9121    2.5421 C.3       9 UNK         0.0261 
     56 CB         34.6573   32.5889    1.7891 C.3       9 UNK        -0.1959 
     57 C          32.8998   31.6945    3.3639 C.2       9 UNK         0.5033 
     58 O          32.0708   30.9164    2.8868 O.2       9 UNK        -0.5390 
     59 N          33.4637   31.5183    4.5645 N.am      10 UNK        -0.4215 
     60 CA         33.1548   30.4152    5.4825 C.3       10 UNK         0.0240 
     61 CB         33.5716   30.8208    6.9090 C.3       10 UNK        -0.1982 
     62 C          33.7767   29.0745    5.0354 C.2       10 UNK         0.4970 
     63 O          34.5911   28.5028    5.7631 O.2       10 UNK        -0.4916 
     64 N          33.3853   28.6129    3.8408 N.am      11 UNK        -0.4279 
     65 CA         33.8875   27.4128    3.1519 C.3       11 UNK         0.1003 
     66 C          35.4089   27.5042    2.8121 C.2       11 UNK         0.5709 
     67 N          36.0936   26.3884    2.5948 N.am      11 UNK        -0.7358 
     68 O          35.9698   28.5909    2.6786 O.2       11 UNK        -0.4999 
     69 C69        33.4575   26.0955    3.8650 C.3       12 UNK        -0.0954 
     70 S70        31.6511   25.8441    3.8488 S.3       12 UNK        -0.2268 
     71 C71        31.5609   24.3404    4.8692 C.3       12 UNK         0.0203 
     72 H72        28.5438   18.9040   -3.2554 H         1 UNK         0.0888 
     73 H73        27.4897   20.3142   -3.3730 H         1 UNK         0.0888 
     74 H74        28.9209   20.1963   -4.3987 H         1 UNK         0.0888 
     75 H75        27.7861   21.7574   -1.6866 H         1 UNK         0.3017 
     76 H76        30.0664   21.6713    0.0599 H         1 UNK         0.0873 
     77 H77        28.9223   23.5967    1.2217 H         1 UNK         0.0745 
     78 H78        27.7849   23.7060   -0.0944 H         1 UNK         0.0745 
     79 H79        27.8739   20.2805    3.0323 H         1 UNK         0.0705 
     80 H80        29.3003   20.7585    2.1555 H         1 UNK         0.0705 
     81 H81        30.6894   22.5220    3.0478 H         1 UNK         0.1334 
     82 H82        29.4055   24.7003    6.5113 H         1 UNK         0.1417 
     83 H83        26.6918   22.0411    4.5153 H         1 UNK         0.1562 
     84 H84        27.1473   23.4769    7.6151 H         1 UNK         0.0748 
     85 H85        25.9172   23.2133    6.4050 H         1 UNK         0.0748 
     86 H86        25.1585   26.4837    4.7861 H         1 UNK         0.0940 
     87 H87        25.8752   24.9613    4.3560 H         1 UNK         0.0940 
     88 H88        28.1875   26.1689    4.5429 H         1 UNK         0.0703 
     89 H89        28.1497   25.9832    2.3871 H         1 UNK         0.3081 
     90 H90        26.5710   25.6251    0.1470 H         1 UNK         0.0719 
     91 H91        26.1030   28.5822   -0.4616 H         1 UNK         0.0809 
     92 H92        24.8757   27.3246   -0.4581 H         1 UNK         0.0809 
     93 H93        26.1620   27.2847   -1.6501 H         1 UNK         0.0809 
     94 H94        28.6476   26.1478   -0.5470 H         1 UNK         0.2990 
     95 H95        30.3651   28.2793   -1.2274 H         1 UNK         0.0690 
     96 H96        32.3560   28.9072    0.1942 H         1 UNK         0.0788 
     97 H97        31.3749   28.6480    1.6380 H         1 UNK         0.0788 
     98 H98        30.9677   29.9306    0.5090 H         1 UNK         0.0788 
     99 H99        30.7100   25.9662    0.5557 H         1 UNK         0.2993 
    100 H100       32.8212   24.3913   -1.8450 H         1 UNK         0.0949 
    101 H101       34.0978   23.7033    0.1554 H         1 UNK         0.0767 
    102 H102       34.4139   25.3984   -0.1753 H         1 UNK         0.0767 
    103 H103       33.3177   24.9528    1.1248 H         1 UNK         0.0767 
    104 H104       31.6261   23.2779    0.4346 H         1 UNK         0.3013 
    105 H105       29.2060   28.1606    3.6534 H         1 UNK         0.3121 
    106 H106       29.9598   30.1862    4.0104 H         1 UNK         0.0774 
    107 H107       29.7107   31.2031    6.2346 H         1 UNK         0.0815 
    108 H108       28.3036   30.2107    6.5836 H         1 UNK         0.0815 
    109 H109       29.8911   29.4650    6.4119 H         1 UNK         0.0815 
    110 H110       27.9492   30.1368    2.1538 H         1 UNK         0.2987 
    111 H111       26.1259   32.3917    2.5572 H         1 UNK         0.0949 
    112 H112       26.8501   30.8179    0.0290 H         1 UNK         0.0806 
    113 H113       25.5276   30.4206    1.1287 H         1 UNK         0.0806 
    114 H114       25.4925   31.9197    0.2114 H         1 UNK         0.0806 
    115 H115       29.3979   31.9967    1.5613 H         1 UNK         0.3010 
    116 H116       29.6377   34.8663    0.8095 H         1 UNK         0.0829 
    117 H117       29.7333   33.6101   -1.3238 H         1 UNK         0.0813 
    118 H118       31.3375   34.1907   -0.9248 H         1 UNK         0.0813 
    119 H119       30.9222   32.4915   -0.6762 H         1 UNK         0.0813 
    120 H120       32.4322   32.9114    0.6396 H         1 UNK         0.3038 
    121 H121       33.5292   33.7535    3.2166 H         1 UNK         0.0769 
    122 H122       34.9962   33.4398    1.1978 H         1 UNK         0.0811 
    123 H123       34.5339   31.7390    1.1161 H         1 UNK         0.0811 
    124 H124       35.4611   32.3377    2.4825 H         1 UNK         0.0811 
    125 H125       34.1699   32.1726    4.8703 H         1 UNK         0.3204 
    126 H126       32.0737   30.2700    5.4900 H         1 UNK         0.0748 
    127 H127       33.0585   31.7279    7.2293 H         1 UNK         0.0771 
    128 H128       33.3191   30.0393    7.6272 H         1 UNK         0.0771 
    129 H129       34.6455   30.9975    6.9824 H         1 UNK         0.0771 
    130 H130       32.7692   29.2152    3.3016 H         1 UNK         0.2980 
    131 H131       33.4066   27.4212    2.1740 H         1 UNK         0.0545 
    132 H132       37.0696   26.4574    2.3529 H         1 UNK         0.3459 
    133 H133       35.6627   25.4826    2.6809 H         1 UNK         0.3459 
    134 H134       33.8948   25.2216    3.3828 H         1 UNK         0.0616 
    135 H135       33.8129   26.0793    4.8963 H         1 UNK         0.0616 
    136 H136       31.7979   24.5937    5.9037 H         1 UNK         0.0634 
    137 H137       32.3236   23.6315    4.5430 H         1 UNK         0.0634 
@<TRIPOS>BOND
     1    1    2 1    
     2    1   72 1    
     3    1   73 1    
     4    1   74 1    
     5    2    3 2    
     6    2    4 am   BACKBONE|DICT|INTERRES
     7    4    5 1    
     8    4   75 1    
     9    5    6 1    
    10    5   35 1    
    11    5   76 1    
    12    6    7 1    
    13    6   77 1    
    14    6   78 1    
    15    7    8 1    
    16    8    9 1    
    17    8   79 1    
    18    8   80 1    
    19    9   10 ar   
    20    9   14 ar   
    21   10   11 ar   
    22   10   81 1    
    23   11   12 ar   
    24   11   71 1    
    25   12   13 ar   
    26   12   82 1    
    27   13   14 ar   
    28   13   15 1    
    29   14   83 1    
    30   15   16 1    
    31   15   84 1    
    32   15   85 1    
    33   16   17 1    
    34   17   18 1    
    35   17   86 1    
    36   17   87 1    
    37   18   19 1    
    38   18   37 1    
    39   18   88 1    
    40   19   20 am   BACKBONE|DICT|INTERRES
    41   19   89 1    
    42   20   21 2    
    43   20   22 1    
    44   22   23 1    
    45   22   24 1    
    46   22   90 1    
    47   23   91 1    
    48   23   92 1    
    49   23   93 1    
    50   24   25 am   BACKBONE|DICT|INTERRES
    51   24   94 1    
    52   25   26 2    
    53   25   27 1    
    54   27   28 1    
    55   27   29 1    
    56   27   95 1    
    57   28   96 1    
    58   28   97 1    
    59   28   98 1    
    60   29   30 am   BACKBONE|DICT|INTERRES
    61   29   99 1    
    62   30   31 2    
    63   30   32 1    
    64   32   33 1    
    65   32   34 1    
    66   32  100 1    
    67   33  101 1    
    68   33  102 1    
    69   33  103 1    
    70   34   35 am   BACKBONE|DICT|INTERRES
    71   34  104 1    
    72   35   36 2    
    73   37   38 2    
    74   37   39 am   BACKBONE|DICT|INTERRES
    75   39   40 1    
    76   39  105 1    
    77   40   41 1    
    78   40   42 1    
    79   40  106 1    
    80   41  107 1    
    81   41  108 1    
    82   41  109 1    
    83   42   43 2    
    84   42   44 am   BACKBONE|DICT|INTERRES
    85   44   45 1    
    86   44  110 1    
    87   45   46 1    
    88   45   47 1    
    89   45  111 1    
    90   46  112 1    
    91   46  113 1    
    92   46  114 1    
    93   47   48 2    
    94   47   49 am   BACKBONE|DICT|INTERRES
    95   49   50 1    
    96   49  115 1    
    97   50   51 1    
    98   50   52 1    
    99   50  116 1    
   100   51  117 1    
   101   51  118 1    
   102   51  119 1    
   103   52   53 2    
   104   52   54 am   BACKBONE|DICT|INTERRES
   105   54   55 1    
   106   54  120 1    
   107   55   56 1    
   108   55   57 1    
   109   55  121 1    
   110   56  122 1    
   111   56  123 1    
   112   56  124 1    
   113   57   58 2    
   114   57   59 am   BACKBONE|DICT|INTERRES
   115   59   60 1    
   116   59  125 1    
   117   60   61 1    
   118   60   62 1    
   119   60  126 1    
   120   61  127 1    
   121   61  128 1    
   122   61  129 1    
   123   62   63 2    
   124   62   64 am   BACKBONE|DICT|INTERRES
   125   64   65 1    
   126   64  130 1    
   127   65   66 1    
   128   65   69 1    
   129   65  131 1    
   130   66   67 am   BACKBONE|DICT|INTERRES
   131   66   68 2    
   132   67  132 1    
   133   67  133 1    
   134   69   70 1    
   135   69  134 1    
   136   69  135 1    
   137   70   71 1    
   138   71  136 1    
   139   71  137 1    
@<TRIPOS>SUBSTRUCTURE
     1 UNK         1 GROUP             0       ****    0 ROOT    
