@<TRIPOS>MOLECULE
3R136
137   139    1
SMALL
USER_CHARGES


@<TRIPOS>ATOM
      1 CA         25.9338   20.7129    3.8258 C.3       0 UNK        -0.1979 
      2 C          26.8257   20.2357    2.6891 C.2       0 UNK         0.4864 
      3 O          27.4202   19.1612    2.7861 O.2       0 UNK        -0.5359 
      4 N          26.9229   21.0264    1.6169 N.am      1 UNK        -0.4318 
      5 CA         27.7293   20.7655    0.4262 C.3       1 UNK         0.0824 
      6 C6         29.2547   20.9402    0.6743 C.3       12 UNK        -0.0944 
      7 S7         29.7319   22.6309    1.1765 S.3       12 UNK        -0.2672 
      8 C8         30.2038   22.3579    2.9074 C.3       12 UNK         0.0333 
      9 C9         30.4607   23.6793    3.6107 C.ar      12 UNK        -0.0807 
     10 C10        31.6779   24.3432    3.4395 C.ar      12 UNK        -0.0894 
     11 C11        31.9239   25.5526    4.0959 C.ar      12 UNK        -0.0804 
     12 C12        30.9433   26.0980    4.9294 C.ar      12 UNK        -0.0824 
     13 C13        29.7163   25.4489    5.0974 C.ar      12 UNK        -0.0762 
     14 C14        29.4837   24.2370    4.4388 C.ar      12 UNK        -0.0782 
     15 C15        28.6478   26.0321    6.0103 C.3       12 UNK         0.0230 
     16 S16        27.1117   26.3970    5.1046 S.3       12 UNK        -0.2608 
     17 C17        27.4572   28.0345    4.3735 C.3       12 UNK        -0.0989 
     18 CA         28.1566   28.0148    2.9801 C.3       5 UNK         0.0716 
     19 N          27.5928   27.0349    2.0412 N.am      5 UNK        -0.4135 
     20 C          26.3487   27.0214    1.5402 C.2       4 UNK         0.5031 
     21 O          25.4722   27.8247    1.8655 O.2       4 UNK        -0.5229 
     22 CA         26.0383   25.9455    0.4754 C.3       4 UNK         0.0329 
     23 CB         24.9195   26.3911   -0.4892 C.3       4 UNK        -0.2001 
     24 N          27.1955   25.4747   -0.3028 N.am      4 UNK        -0.4303 
     25 C          28.0746   26.2181   -0.9975 C.2       3 UNK         0.5044 
     26 O          28.1047   27.4476   -0.9626 O.2       3 UNK        -0.5152 
     27 CA         29.1140   25.4820   -1.8636 C.3       3 UNK         0.0319 
     28 CB         30.4969   25.5192   -1.1918 C.3       3 UNK        -0.2001 
     29 N          28.7438   24.0949   -2.1620 N.am      3 UNK        -0.4354 
     30 C          27.7826   23.7405   -3.0301 C.2       2 UNK         0.4964 
     31 O          27.1710   24.5448   -3.7339 O.2       2 UNK        -0.5047 
     32 CA         27.4211   22.2444   -3.1253 C.3       2 UNK         0.0288 
     33 CB         28.1110   21.6029   -4.3406 C.3       2 UNK        -0.2113 
     34 N          27.7362   21.4603   -1.9249 N.am      2 UNK        -0.4145 
     35 C          27.2120   21.6681   -0.7084 C.2       1 UNK         0.5006 
     36 O          26.3939   22.5601   -0.4588 O.2       1 UNK        -0.5103 
     37 C          28.2420   29.4467    2.3859 C.2       5 UNK         0.5055 
     38 O          28.3468   30.4021    3.1585 O.2       5 UNK        -0.5220 
     39 N          28.1860   29.5928    1.0490 N.am      6 UNK        -0.4450 
     40 CA         27.9797   30.8648    0.3383 C.3       6 UNK         0.0367 
     41 CB         27.8528   30.6004   -1.1700 C.3       6 UNK        -0.1929 
     42 C          29.0301   31.9576    0.5977 C.2       6 UNK         0.5070 
     43 O          28.6983   33.1401    0.5174 O.2       6 UNK        -0.5237 
     44 N          30.2583   31.5636    0.9536 N.am      7 UNK        -0.4739 
     45 CA         31.3581   32.4525    1.3454 C.3       7 UNK         0.0276 
     46 CB         32.6857   31.7106    1.1015 C.3       7 UNK        -0.1927 
     47 C          31.2372   32.9553    2.8026 C.2       7 UNK         0.5013 
     48 O          32.2538   33.0809    3.4850 O.2       7 UNK        -0.5193 
     49 N          30.0033   33.1765    3.2848 N.am      8 UNK        -0.4253 
     50 CA         29.6288   33.4945    4.6728 C.3       8 UNK         0.0242 
     51 CB         30.0469   34.9370    5.0276 C.3       8 UNK        -0.2000 
     52 C          30.1625   32.4521    5.6791 C.2       8 UNK         0.4948 
     53 O          30.6249   32.8137    6.7621 O.2       8 UNK        -0.5275 
     54 N          30.1460   31.1798    5.2541 N.am      9 UNK        -0.4246 
     55 CA         30.7536   29.9951    5.8718 C.3       9 UNK         0.0261 
     56 CB         30.0982   29.6854    7.2335 C.3       9 UNK        -0.1959 
     57 C          32.2967   30.0103    5.9743 C.2       9 UNK         0.5033 
     58 O          32.8595   29.0369    6.4773 O.2       9 UNK        -0.5390 
     59 N          32.9684   31.0630    5.4893 N.am      10 UNK        -0.4215 
     60 CA         34.4180   31.2446    5.5437 C.3       10 UNK         0.0240 
     61 CB         34.7186   32.6758    6.0281 C.3       10 UNK        -0.1982 
     62 C          35.0180   30.9468    4.1622 C.2       10 UNK         0.4970 
     63 O          35.5247   31.8512    3.4956 O.2       10 UNK        -0.4916 
     64 N          34.9142   29.6786    3.7484 N.am      11 UNK        -0.4279 
     65 CA         35.4106   29.1548    2.4669 C.3       11 UNK         0.1003 
     66 C          36.9407   29.3501    2.2728 C.2       11 UNK         0.5709 
     67 N          37.3819   29.6381    1.0557 N.am      11 UNK        -0.7358 
     68 O          37.7298   29.1961    3.2038 O.2       11 UNK        -0.4999 
     69 C69        35.0387   27.6621    2.2791 C.3       12 UNK        -0.0954 
     70 S70        33.2523   27.3232    2.4459 S.3       12 UNK        -0.2268 
     71 C71        33.2597   26.2522    3.9160 C.3       12 UNK         0.0203 
     72 H72        25.1321   19.9960    4.0008 H         1 UNK         0.0888 
     73 H73        26.5144   20.8071    4.7432 H         1 UNK         0.0888 
     74 H74        25.4825   21.6814    3.6104 H         1 UNK         0.0888 
     75 H75        26.3817   21.8800    1.5466 H         1 UNK         0.3017 
     76 H76        27.5411   19.7349    0.1174 H         1 UNK         0.0873 
     77 H77        29.5891   20.2282    1.4302 H         1 UNK         0.0745 
     78 H78        29.8213   20.6824   -0.2217 H         1 UNK         0.0745 
     79 H79        29.4149   21.8030    3.4175 H         1 UNK         0.0705 
     80 H80        31.0983   21.7342    2.9466 H         1 UNK         0.0705 
     81 H81        32.4341   23.9176    2.7936 H         1 UNK         0.1334 
     82 H82        31.1446   27.0201    5.4543 H         1 UNK         0.1417 
     83 H83        28.5374   23.7301    4.5722 H         1 UNK         0.1562 
     84 H84        29.0018   26.9295    6.5188 H         1 UNK         0.0748 
     85 H85        28.4257   25.3062    6.7936 H         1 UNK         0.0748 
     86 H86        28.0421   28.6175    5.0858 H         1 UNK         0.0940 
     87 H87        26.4976   28.5497    4.2985 H         1 UNK         0.0940 
     88 H88        29.1897   27.7028    3.1371 H         1 UNK         0.0703 
     89 H89        28.2332   26.3255    1.7161 H         1 UNK         0.3081 
     90 H90        25.6738   25.0774    1.0264 H         1 UNK         0.0719 
     91 H91        25.2009   27.2885   -1.0416 H         1 UNK         0.0809 
     92 H92        24.6883   25.6101   -1.2137 H         1 UNK         0.0809 
     93 H93        23.9972   26.6133    0.0490 H         1 UNK         0.0809 
     94 H94        27.2535   24.4667   -0.3972 H         1 UNK         0.2990 
     95 H95        29.1877   26.0241   -2.8088 H         1 UNK         0.0690 
     96 H96        31.2485   25.0113   -1.7962 H         1 UNK         0.0788 
     97 H97        30.4861   25.0550   -0.2062 H         1 UNK         0.0788 
     98 H98        30.8338   26.5480   -1.0565 H         1 UNK         0.0788 
     99 H99        29.2050   23.3740   -1.6254 H         1 UNK         0.2993 
    100 H100       26.3407   22.1892   -3.2765 H         1 UNK         0.0949 
    101 H101       27.8727   22.1453   -5.2569 H         1 UNK         0.0767 
    102 H102       29.1968   21.6030   -4.2351 H         1 UNK         0.0767 
    103 H103       27.7861   20.5722   -4.4843 H         1 UNK         0.0767 
    104 H104       28.4047   20.7126   -2.0440 H         1 UNK         0.3013 
    105 H105       28.1322   28.7577    0.4701 H         1 UNK         0.3121 
    106 H106       27.0250   31.2639    0.6869 H         1 UNK         0.0774 
    107 H107       28.7545   30.1387   -1.5743 H         1 UNK         0.0815 
    108 H108       27.6847   31.5275   -1.7201 H         1 UNK         0.0815 
    109 H109       27.0120   29.9414   -1.3872 H         1 UNK         0.0815 
    110 H110       30.4303   30.5710    1.0220 H         1 UNK         0.2987 
    111 H111       31.3431   33.3368    0.7046 H         1 UNK         0.0949 
    112 H112       32.7697   30.8291    1.7379 H         1 UNK         0.0806 
    113 H113       32.7780   31.3878    0.0644 H         1 UNK         0.0806 
    114 H114       33.5433   32.3504    1.3155 H         1 UNK         0.0806 
    115 H115       29.2339   33.0451    2.6390 H         1 UNK         0.3010 
    116 H116       28.5403   33.4379    4.7222 H         1 UNK         0.0829 
    117 H117       31.1315   35.0509    5.0430 H         1 UNK         0.0813 
    118 H118       29.6446   35.6539    4.3120 H         1 UNK         0.0813 
    119 H119       29.6760   35.2210    6.0132 H         1 UNK         0.0813 
    120 H120       29.6698   31.0043    4.3710 H         1 UNK         0.3038 
    121 H121       30.5125   29.1766    5.1944 H         1 UNK         0.0769 
    122 H122       30.3385   30.4438    7.9791 H         1 UNK         0.0811 
    123 H123       30.4431   28.7285    7.6270 H         1 UNK         0.0811 
    124 H124       29.0130   29.6296    7.1516 H         1 UNK         0.0811 
    125 H125       32.4613   31.7983    5.0045 H         1 UNK         0.3204 
    126 H126       34.8687   30.5514    6.2571 H         1 UNK         0.0748 
    127 H127       35.7935   32.8517    6.0862 H         1 UNK         0.0771 
    128 H128       34.2985   33.4270    5.3576 H         1 UNK         0.0771 
    129 H129       34.3061   32.8502    7.0220 H         1 UNK         0.0771 
    130 H130       34.4760   29.0069    4.3611 H         1 UNK         0.2980 
    131 H131       34.9064   29.7245    1.6848 H         1 UNK         0.0545 
    132 H132       38.3727   29.7516    0.9089 H         1 UNK         0.3459 
    133 H133       36.7455   29.7522    0.2823 H         1 UNK         0.3459 
    134 H134       35.3379   27.3241    1.2853 H         1 UNK         0.0616 
    135 H135       35.5976   27.0441    2.9844 H         1 UNK         0.0616 
    136 H136       34.0468   25.5025    3.8202 H         1 UNK         0.0634 
    137 H137       33.5036   26.8465    4.7978 H         1 UNK         0.0634 
@<TRIPOS>BOND
     1    1    2 1    
     2    1   72 1    
     3    1   73 1    
     4    1   74 1    
     5    2    3 2    
     6    2    4 am   BACKBONE|DICT|INTERRES
     7    4    5 1    
     8    4   75 1    
     9    5    6 1    
    10    5   35 1    
    11    5   76 1    
    12    6    7 1    
    13    6   77 1    
    14    6   78 1    
    15    7    8 1    
    16    8    9 1    
    17    8   79 1    
    18    8   80 1    
    19    9   10 ar   
    20    9   14 ar   
    21   10   11 ar   
    22   10   81 1    
    23   11   12 ar   
    24   11   71 1    
    25   12   13 ar   
    26   12   82 1    
    27   13   14 ar   
    28   13   15 1    
    29   14   83 1    
    30   15   16 1    
    31   15   84 1    
    32   15   85 1    
    33   16   17 1    
    34   17   18 1    
    35   17   86 1    
    36   17   87 1    
    37   18   19 1    
    38   18   37 1    
    39   18   88 1    
    40   19   20 am   BACKBONE|DICT|INTERRES
    41   19   89 1    
    42   20   21 2    
    43   20   22 1    
    44   22   23 1    
    45   22   24 1    
    46   22   90 1    
    47   23   91 1    
    48   23   92 1    
    49   23   93 1    
    50   24   25 am   BACKBONE|DICT|INTERRES
    51   24   94 1    
    52   25   26 2    
    53   25   27 1    
    54   27   28 1    
    55   27   29 1    
    56   27   95 1    
    57   28   96 1    
    58   28   97 1    
    59   28   98 1    
    60   29   30 am   BACKBONE|DICT|INTERRES
    61   29   99 1    
    62   30   31 2    
    63   30   32 1    
    64   32   33 1    
    65   32   34 1    
    66   32  100 1    
    67   33  101 1    
    68   33  102 1    
    69   33  103 1    
    70   34   35 am   BACKBONE|DICT|INTERRES
    71   34  104 1    
    72   35   36 2    
    73   37   38 2    
    74   37   39 am   BACKBONE|DICT|INTERRES
    75   39   40 1    
    76   39  105 1    
    77   40   41 1    
    78   40   42 1    
    79   40  106 1    
    80   41  107 1    
    81   41  108 1    
    82   41  109 1    
    83   42   43 2    
    84   42   44 am   BACKBONE|DICT|INTERRES
    85   44   45 1    
    86   44  110 1    
    87   45   46 1    
    88   45   47 1    
    89   45  111 1    
    90   46  112 1    
    91   46  113 1    
    92   46  114 1    
    93   47   48 2    
    94   47   49 am   BACKBONE|DICT|INTERRES
    95   49   50 1    
    96   49  115 1    
    97   50   51 1    
    98   50   52 1    
    99   50  116 1    
   100   51  117 1    
   101   51  118 1    
   102   51  119 1    
   103   52   53 2    
   104   52   54 am   BACKBONE|DICT|INTERRES
   105   54   55 1    
   106   54  120 1    
   107   55   56 1    
   108   55   57 1    
   109   55  121 1    
   110   56  122 1    
   111   56  123 1    
   112   56  124 1    
   113   57   58 2    
   114   57   59 am   BACKBONE|DICT|INTERRES
   115   59   60 1    
   116   59  125 1    
   117   60   61 1    
   118   60   62 1    
   119   60  126 1    
   120   61  127 1    
   121   61  128 1    
   122   61  129 1    
   123   62   63 2    
   124   62   64 am   BACKBONE|DICT|INTERRES
   125   64   65 1    
   126   64  130 1    
   127   65   66 1    
   128   65   69 1    
   129   65  131 1    
   130   66   67 am   BACKBONE|DICT|INTERRES
   131   66   68 2    
   132   67  132 1    
   133   67  133 1    
   134   69   70 1    
   135   69  134 1    
   136   69  135 1    
   137   70   71 1    
   138   71  136 1    
   139   71  137 1    
@<TRIPOS>SUBSTRUCTURE
     1 UNK         1 GROUP             0       ****    0 ROOT    
