@<TRIPOS>MOLECULE
3R136
137   139    1
SMALL
USER_CHARGES


@<TRIPOS>ATOM
      1 CA         31.0705   19.5903    0.2099 C.3       0 UNK        -0.1979 
      2 C          30.8647   20.9204   -0.5001 C.2       0 UNK         0.4864 
      3 O          31.3806   21.1121   -1.6027 O.2       0 UNK        -0.5359 
      4 N          30.1224   21.8409    0.1270 N.am      1 UNK        -0.4318 
      5 CA         29.7461   23.1421   -0.4318 C.3       1 UNK         0.0824 
      6 C6         29.3991   24.1732    0.6764 C.3       12 UNK        -0.0944 
      7 S7         28.2173   23.5810    1.9412 S.3       12 UNK        -0.2672 
      8 C8         29.3005   23.2296    3.3671 C.3       12 UNK         0.0333 
      9 C9         29.8498   24.5060    3.9860 C.ar      12 UNK        -0.0807 
     10 C10        31.1783   24.8829    3.7696 C.ar      12 UNK        -0.0894 
     11 C11        31.6717   26.0781    4.2990 C.ar      12 UNK        -0.0804 
     12 C12        30.8194   26.9079    5.0338 C.ar      12 UNK        -0.0824 
     13 C13        29.4933   26.5333    5.2700 C.ar      12 UNK        -0.0762 
     14 C14        29.0228   25.3172    4.7674 C.ar      12 UNK        -0.0782 
     15 C15        28.5739   27.4538    6.0581 C.3       12 UNK         0.0230 
     16 S16        28.0031   28.8463    5.0325 S.3       12 UNK        -0.2608 
     17 C17        26.4927   28.1789    4.2484 C.3       12 UNK        -0.0989 
     18 CA         26.7006   27.2935    2.9879 C.3       5 UNK         0.0716 
     19 N          25.4339   26.8879    2.3962 N.am      5 UNK        -0.4135 
     20 C          24.5997   25.9558    2.8675 C.2       4 UNK         0.5031 
     21 O          24.7523   25.3774    3.9442 O.2       4 UNK        -0.5229 
     22 CA         23.3923   25.5954    1.9787 C.3       4 UNK         0.0329 
     23 CB         22.1593   26.4177    2.3871 C.3       4 UNK        -0.2001 
     24 N          23.6464   25.7778    0.5431 N.am      4 UNK        -0.4303 
     25 C          24.5473   25.0767   -0.1600 C.2       3 UNK         0.5044 
     26 O          25.2087   24.1533    0.3175 O.2       3 UNK        -0.5152 
     27 CA         24.7563   25.4747   -1.6294 C.3       3 UNK         0.0319 
     28 CB         24.7763   27.0020   -1.8486 C.3       3 UNK        -0.2001 
     29 N          26.0187   24.9015   -2.0898 N.am      3 UNK        -0.4354 
     30 C          26.2902   24.4896   -3.3317 C.2       2 UNK         0.4964 
     31 O          25.4825   24.5619   -4.2593 O.2       2 UNK        -0.5047 
     32 CA         27.6971   23.9204   -3.6085 C.3       2 UNK         0.0288 
     33 CB         28.3785   24.6875   -4.7566 C.3       2 UNK        -0.2113 
     34 N          28.5977   23.9298   -2.4482 N.am      2 UNK        -0.4145 
     35 C          28.6304   22.9924   -1.4907 C.2       1 UNK         0.5006 
     36 O          27.8377   22.0483   -1.4346 O.2       1 UNK        -0.5103 
     37 C          27.5110   27.9577    1.8628 C.2       5 UNK         0.5055 
     38 O          26.9145   28.5157    0.9361 O.2       5 UNK        -0.5220 
     39 N          28.8450   27.8714    1.9440 N.am      6 UNK        -0.4450 
     40 CA         29.7670   28.5273    1.0179 C.3       6 UNK         0.0367 
     41 CB         31.1802   27.9527    1.2066 C.3       6 UNK        -0.1929 
     42 C          29.7595   30.0450    1.2562 C.2       6 UNK         0.5070 
     43 O          30.0948   30.4829    2.3580 O.2       6 UNK        -0.5237 
     44 N          29.3978   30.8168    0.2225 N.am      7 UNK        -0.4739 
     45 CA         29.1978   32.2729    0.2731 C.3       7 UNK         0.0276 
     46 CB         28.6784   32.7557   -1.0910 C.3       7 UNK        -0.1927 
     47 C          30.4305   33.0934    0.6982 C.2       7 UNK         0.5013 
     48 O          30.2678   34.2069    1.1985 O.2       7 UNK        -0.5193 
     49 N          31.6314   32.5300    0.5098 N.am      8 UNK        -0.4253 
     50 CA         32.9007   33.0959    0.9706 C.3       8 UNK         0.0242 
     51 CB         34.0580   32.3666    0.2669 C.3       8 UNK        -0.2000 
     52 C          33.0858   33.0369    2.4997 C.2       8 UNK         0.4948 
     53 O          33.9017   33.7970    3.0219 O.2       8 UNK        -0.5275 
     54 N          32.3633   32.1292    3.1812 N.am      9 UNK        -0.4246 
     55 CA         32.4009   31.8595    4.6270 C.3       9 UNK         0.0261 
     56 CB         31.8192   33.0504    5.4172 C.3       9 UNK        -0.1959 
     57 C          33.7850   31.4203    5.1535 C.2       9 UNK         0.5033 
     58 O          34.0784   31.6045    6.3367 O.2       9 UNK        -0.5390 
     59 N          34.6061   30.8240    4.2752 N.am      10 UNK        -0.4215 
     60 CA         35.9988   30.4291    4.5253 C.3       10 UNK         0.0240 
     61 CB         36.6135   29.9178    3.2118 C.3       10 UNK        -0.1982 
     62 C          36.1863   29.3895    5.6457 C.2       10 UNK         0.4970 
     63 O          37.2685   29.3210    6.2297 O.2       10 UNK        -0.4916 
     64 N          35.1343   28.6132    5.9249 N.am      11 UNK        -0.4279 
     65 CA         35.0633   27.6424    7.0246 C.3       11 UNK         0.1003 
     66 C          34.8668   28.2898    8.4279 C.2       11 UNK         0.5709 
     67 N          34.5814   29.5833    8.5405 N.am      11 UNK        -0.7358 
     68 O          34.9855   27.6021    9.4393 O.2       11 UNK        -0.4999 
     69 C69        33.9858   26.5595    6.7534 C.3       12 UNK        -0.0954 
     70 S70        34.2666   25.6513    5.1935 S.3       12 UNK        -0.2268 
     71 C71        33.1174   26.4792    4.0479 C.3       12 UNK         0.0203 
     72 H72        30.5741   19.5648    1.1799 H         1 UNK         0.0888 
     73 H73        30.6725   18.7768   -0.3960 H         1 UNK         0.0888 
     74 H74        32.1333   19.4098    0.3685 H         1 UNK         0.0888 
     75 H75        29.6747   21.6115    1.0023 H         1 UNK         0.3017 
     76 H76        30.6218   23.5292   -0.9584 H         1 UNK         0.0873 
     77 H77        30.3214   24.4756    1.1707 H         1 UNK         0.0745 
     78 H78        29.0005   25.0924    0.2430 H         1 UNK         0.0745 
     79 H79        28.7275   22.6831    4.1176 H         1 UNK         0.0705 
     80 H80        30.1105   22.5669    3.0593 H         1 UNK         0.0705 
     81 H81        31.8301   24.2504    3.1822 H         1 UNK         0.1334 
     82 H82        31.1831   27.8495    5.4221 H         1 UNK         0.1417 
     83 H83        27.9991   25.0168    4.9488 H         1 UNK         0.1562 
     84 H84        29.1157   27.8515    6.9175 H         1 UNK         0.0748 
     85 H85        27.7212   26.9074    6.4640 H         1 UNK         0.0748 
     86 H86        25.8623   29.0321    3.9911 H         1 UNK         0.0940 
     87 H87        25.9333   27.6246    5.0033 H         1 UNK         0.0940 
     88 H88        27.2209   26.3795    3.2608 H         1 UNK         0.0703 
     89 H89        25.2557   27.3160    1.4961 H         1 UNK         0.3081 
     90 H90        23.1693   24.5394    2.1462 H         1 UNK         0.0719 
     91 H91        22.3114   27.4852    2.2228 H         1 UNK         0.0809 
     92 H92        21.2748   26.1130    1.8273 H         1 UNK         0.0809 
     93 H93        21.9329   26.2804    3.4456 H         1 UNK         0.0809 
     94 H94        23.1274   26.5086    0.0777 H         1 UNK         0.2990 
     95 H95        23.9308   25.0404   -2.1972 H         1 UNK         0.0690 
     96 H96        25.5399   27.4862   -1.2386 H         1 UNK         0.0788 
     97 H97        23.8167   27.4585   -1.6053 H         1 UNK         0.0788 
     98 H98        24.9836   27.2472   -2.8905 H         1 UNK         0.0788 
     99 H99        26.6852   24.7050   -1.3551 H         1 UNK         0.2993 
    100 H100       27.5573   22.8863   -3.9320 H         1 UNK         0.0949 
    101 H101       29.3503   24.2573   -5.0001 H         1 UNK         0.0767 
    102 H102       27.7774   24.6520   -5.6663 H         1 UNK         0.0767 
    103 H103       28.5282   25.7386   -4.5063 H         1 UNK         0.0767 
    104 H104       29.2711   24.6822   -2.4173 H         1 UNK         0.3013 
    105 H105       29.2538   27.4496    2.7670 H         1 UNK         0.3121 
    106 H106       29.4428   28.3142   -0.0031 H         1 UNK         0.0774 
    107 H107       31.8744   28.3798    0.4820 H         1 UNK         0.0815 
    108 H108       31.5727   28.1717    2.1997 H         1 UNK         0.0815 
    109 H109       31.1940   26.8714    1.0711 H         1 UNK         0.0815 
    110 H110       29.1404   30.3644   -0.6436 H         1 UNK         0.2987 
    111 H111       28.4235   32.4638    1.0195 H         1 UNK         0.0949 
    112 H112       29.3958   32.5590   -1.8887 H         1 UNK         0.0806 
    113 H113       27.7391   32.2690   -1.3543 H         1 UNK         0.0806 
    114 H114       28.4902   33.8305   -1.0802 H         1 UNK         0.0806 
    115 H115       31.6626   31.6191    0.0760 H         1 UNK         0.3010 
    116 H116       32.9307   34.1482    0.6795 H         1 UNK         0.0829 
    117 H117       33.9922   32.4708   -0.8163 H         1 UNK         0.0813 
    118 H118       35.0217   32.7784    0.5708 H         1 UNK         0.0813 
    119 H119       34.0704   31.3017    0.5023 H         1 UNK         0.0813 
    120 H120       31.6790   31.5754    2.6708 H         1 UNK         0.3038 
    121 H121       31.7379   31.0076    4.7868 H         1 UNK         0.0769 
    122 H122       32.4621   33.9289    5.3555 H         1 UNK         0.0811 
    123 H123       31.7061   32.8036    6.4736 H         1 UNK         0.0811 
    124 H124       30.8334   33.3284    5.0442 H         1 UNK         0.0811 
    125 H125       34.2716   30.7138    3.3296 H         1 UNK         0.3204 
    126 H126       36.5397   31.3274    4.8300 H         1 UNK         0.0748 
    127 H127       37.6611   29.6459    3.3502 H         1 UNK         0.0771 
    128 H128       36.0942   29.0333    2.8402 H         1 UNK         0.0771 
    129 H129       36.5806   30.6806    2.4334 H         1 UNK         0.0771 
    130 H130       34.2857   28.7552    5.4026 H         1 UNK         0.2980 
    131 H131       36.0277   27.1327    7.0698 H         1 UNK         0.0545 
    132 H132       34.4811   30.1763    7.7237 H         1 UNK         0.3459 
    133 H133       34.4641   29.9790    9.4595 H         1 UNK         0.3459 
    134 H134       33.9855   25.8193    7.5555 H         1 UNK         0.0616 
    135 H135       32.9896   27.0009    6.7564 H         1 UNK         0.0616 
    136 H136       33.3940   26.2121    3.0268 H         1 UNK         0.0634 
    137 H137       33.2356   27.5607    4.1172 H         1 UNK         0.0634 
@<TRIPOS>BOND
     1    1    2 1    
     2    1   72 1    
     3    1   73 1    
     4    1   74 1    
     5    2    3 2    
     6    2    4 am   BACKBONE|DICT|INTERRES
     7    4    5 1    
     8    4   75 1    
     9    5    6 1    
    10    5   35 1    
    11    5   76 1    
    12    6    7 1    
    13    6   77 1    
    14    6   78 1    
    15    7    8 1    
    16    8    9 1    
    17    8   79 1    
    18    8   80 1    
    19    9   10 ar   
    20    9   14 ar   
    21   10   11 ar   
    22   10   81 1    
    23   11   12 ar   
    24   11   71 1    
    25   12   13 ar   
    26   12   82 1    
    27   13   14 ar   
    28   13   15 1    
    29   14   83 1    
    30   15   16 1    
    31   15   84 1    
    32   15   85 1    
    33   16   17 1    
    34   17   18 1    
    35   17   86 1    
    36   17   87 1    
    37   18   19 1    
    38   18   37 1    
    39   18   88 1    
    40   19   20 am   BACKBONE|DICT|INTERRES
    41   19   89 1    
    42   20   21 2    
    43   20   22 1    
    44   22   23 1    
    45   22   24 1    
    46   22   90 1    
    47   23   91 1    
    48   23   92 1    
    49   23   93 1    
    50   24   25 am   BACKBONE|DICT|INTERRES
    51   24   94 1    
    52   25   26 2    
    53   25   27 1    
    54   27   28 1    
    55   27   29 1    
    56   27   95 1    
    57   28   96 1    
    58   28   97 1    
    59   28   98 1    
    60   29   30 am   BACKBONE|DICT|INTERRES
    61   29   99 1    
    62   30   31 2    
    63   30   32 1    
    64   32   33 1    
    65   32   34 1    
    66   32  100 1    
    67   33  101 1    
    68   33  102 1    
    69   33  103 1    
    70   34   35 am   BACKBONE|DICT|INTERRES
    71   34  104 1    
    72   35   36 2    
    73   37   38 2    
    74   37   39 am   BACKBONE|DICT|INTERRES
    75   39   40 1    
    76   39  105 1    
    77   40   41 1    
    78   40   42 1    
    79   40  106 1    
    80   41  107 1    
    81   41  108 1    
    82   41  109 1    
    83   42   43 2    
    84   42   44 am   BACKBONE|DICT|INTERRES
    85   44   45 1    
    86   44  110 1    
    87   45   46 1    
    88   45   47 1    
    89   45  111 1    
    90   46  112 1    
    91   46  113 1    
    92   46  114 1    
    93   47   48 2    
    94   47   49 am   BACKBONE|DICT|INTERRES
    95   49   50 1    
    96   49  115 1    
    97   50   51 1    
    98   50   52 1    
    99   50  116 1    
   100   51  117 1    
   101   51  118 1    
   102   51  119 1    
   103   52   53 2    
   104   52   54 am   BACKBONE|DICT|INTERRES
   105   54   55 1    
   106   54  120 1    
   107   55   56 1    
   108   55   57 1    
   109   55  121 1    
   110   56  122 1    
   111   56  123 1    
   112   56  124 1    
   113   57   58 2    
   114   57   59 am   BACKBONE|DICT|INTERRES
   115   59   60 1    
   116   59  125 1    
   117   60   61 1    
   118   60   62 1    
   119   60  126 1    
   120   61  127 1    
   121   61  128 1    
   122   61  129 1    
   123   62   63 2    
   124   62   64 am   BACKBONE|DICT|INTERRES
   125   64   65 1    
   126   64  130 1    
   127   65   66 1    
   128   65   69 1    
   129   65  131 1    
   130   66   67 am   BACKBONE|DICT|INTERRES
   131   66   68 2    
   132   67  132 1    
   133   67  133 1    
   134   69   70 1    
   135   69  134 1    
   136   69  135 1    
   137   70   71 1    
   138   71  136 1    
   139   71  137 1    
@<TRIPOS>SUBSTRUCTURE
     1 UNK         1 GROUP             0       ****    0 ROOT    
