@<TRIPOS>MOLECULE
3R136
137   139    1
SMALL
USER_CHARGES


@<TRIPOS>ATOM
      1 CA         30.5191   31.3777   -3.7035 C.3       0 UNK        -0.1979 
      2 C          29.9409   30.5653   -2.5547 C.2       0 UNK         0.4864 
      3 O          29.4928   31.1451   -1.5647 O.2       0 UNK        -0.5359 
      4 N          29.9673   29.2311   -2.6721 N.am      1 UNK        -0.4318 
      5 CA         29.3968   28.2882   -1.7037 C.3       1 UNK         0.0824 
      6 C6         29.9327   26.8524   -1.9508 C.3       12 UNK        -0.0944 
      7 S7         29.9223   25.8326   -0.4379 S.3       12 UNK        -0.2672 
      8 C8         31.7026   25.6112   -0.1473 C.3       12 UNK         0.0333 
      9 C9         31.9710   24.9627    1.2015 C.ar      12 UNK        -0.0807 
     10 C10        32.4628   25.7261    2.2660 C.ar      12 UNK        -0.0894 
     11 C11        32.7403   25.1263    3.4978 C.ar      12 UNK        -0.0804 
     12 C12        32.4983   23.7609    3.6682 C.ar      12 UNK        -0.0824 
     13 C13        31.9877   22.9911    2.6184 C.ar      12 UNK        -0.0762 
     14 C14        31.7421   23.5943    1.3811 C.ar      12 UNK        -0.0782 
     15 C15        31.6931   21.5107    2.8314 C.3       12 UNK         0.0230 
     16 S16        29.9040   21.1517    2.9057 S.3       12 UNK        -0.2608 
     17 C17        29.3142   22.3740    4.1266 C.3       12 UNK        -0.0989 
     18 CA         28.5813   23.5423    3.4178 C.3       5 UNK         0.0716 
     19 N          27.2492   23.1324    2.9578 N.am      5 UNK        -0.4135 
     20 C          26.4829   23.8151    2.0991 C.2       4 UNK         0.5031 
     21 O          26.8407   24.8592    1.5493 O.2       4 UNK        -0.5229 
     22 CA         25.0822   23.2490    1.8117 C.3       4 UNK         0.0329 
     23 CB         24.2401   23.1183    3.0947 C.3       4 UNK        -0.2001 
     24 N          24.4140   24.1702    0.8997 N.am      4 UNK        -0.4303 
     25 C          23.7160   23.8623   -0.1969 C.2       3 UNK         0.5044 
     26 O          23.4162   22.7117   -0.5188 O.2       3 UNK        -0.5152 
     27 CA         23.2729   25.0411   -1.0920 C.3       3 UNK         0.0319 
     28 CB         21.7514   25.2453   -0.9988 C.3       3 UNK        -0.2001 
     29 N          23.9429   26.3119   -0.7772 N.am      3 UNK        -0.4354 
     30 C          25.2366   26.5775   -1.0132 C.2       2 UNK         0.4964 
     31 O          25.9828   25.7984   -1.6106 O.2       2 UNK        -0.5047 
     32 CA         25.7642   27.9231   -0.4675 C.3       2 UNK         0.0288 
     33 CB         25.4036   28.1265    1.0173 C.3       2 UNK        -0.2113 
     34 N          27.2167   28.0440   -0.6049 N.am      2 UNK        -0.4145 
     35 C          27.8534   28.3295   -1.7463 C.2       1 UNK         0.5006 
     36 O          27.2750   28.5961   -2.8054 O.2       1 UNK        -0.5103 
     37 C          28.5016   24.8084    4.2978 C.2       5 UNK         0.5055 
     38 O          28.4514   24.7069    5.5254 O.2       5 UNK        -0.5220 
     39 N          28.4618   25.9690    3.6388 N.am      6 UNK        -0.4450 
     40 CA         28.3827   27.3121    4.1951 C.3       6 UNK         0.0367 
     41 CB         26.9730   27.5768    4.7599 C.3       6 UNK        -0.1929 
     42 C          28.7265   28.3028    3.0745 C.2       6 UNK         0.5070 
     43 O          28.7067   27.9299    1.8981 O.2       6 UNK        -0.5237 
     44 N          29.0073   29.5533    3.4611 N.am      7 UNK        -0.4739 
     45 CA         29.4670   30.6498    2.6000 C.3       7 UNK         0.0276 
     46 CB         28.4057   31.0277    1.5425 C.3       7 UNK        -0.1927 
     47 C          30.8763   30.3735    2.0367 C.2       7 UNK         0.5013 
     48 O          31.6981   29.8017    2.7575 O.2       7 UNK        -0.5193 
     49 N          31.1693   30.8314    0.8099 N.am      8 UNK        -0.4253 
     50 CA         32.4923   30.8443    0.1701 C.3       8 UNK         0.0242 
     51 CB         32.9324   29.4137   -0.2165 C.3       8 UNK        -0.2000 
     52 C          33.5188   31.6050    1.0330 C.2       8 UNK         0.4948 
     53 O          33.4459   32.8318    1.1109 O.2       8 UNK        -0.5275 
     54 N          34.4196   30.8682    1.6967 N.am      9 UNK        -0.4246 
     55 CA         35.3862   31.3822    2.6719 C.3       9 UNK         0.0261 
     56 CB         36.5236   30.3560    2.8193 C.3       9 UNK        -0.1959 
     57 C          34.7723   31.7114    4.0505 C.2       9 UNK         0.5033 
     58 O          35.4900   32.2341    4.9032 O.2       9 UNK        -0.5390 
     59 N          33.4884   31.3760    4.2567 N.am      10 UNK        -0.4215 
     60 CA         32.6913   31.4891    5.4875 C.3       10 UNK         0.0240 
     61 CB         32.7108   32.9162    6.0761 C.3       10 UNK        -0.1982 
     62 C          33.0065   30.4009    6.5320 C.2       10 UNK         0.4970 
     63 O          32.5075   30.4856    7.6555 O.2       10 UNK        -0.4916 
     64 N          33.7790   29.3827    6.1296 N.am      11 UNK        -0.4279 
     65 CA         34.1451   28.1898    6.9075 C.3       11 UNK         0.1003 
     66 C          34.9449   28.5148    8.2079 C.2       11 UNK         0.5709 
     67 N          34.9305   27.6458    9.2109 N.am      11 UNK        -0.7358 
     68 O          35.6375   29.5274    8.2956 O.2       11 UNK        -0.4999 
     69 C69        32.9384   27.2229    7.1186 C.3       12 UNK        -0.0954 
     70 S70        32.0313   26.7910    5.5912 S.3       12 UNK        -0.2268 
     71 C71        33.3257   25.9414    4.6398 C.3       12 UNK         0.0203 
     72 H72        31.3366   32.0030   -3.3458 H         1 UNK         0.0888 
     73 H73        30.9022   30.7419   -4.5014 H         1 UNK         0.0888 
     74 H74        29.7522   32.0268   -4.1250 H         1 UNK         0.0888 
     75 H75        30.3150   28.8204   -3.5264 H         1 UNK         0.3017 
     76 H76        29.7177   28.6171   -0.7120 H         1 UNK         0.0873 
     77 H77        30.9571   26.8923   -2.3247 H         1 UNK         0.0745 
     78 H78        29.3614   26.3395   -2.7276 H         1 UNK         0.0745 
     79 H79        32.2011   26.5785   -0.2069 H         1 UNK         0.0705 
     80 H80        32.1250   24.9953   -0.9426 H         1 UNK         0.0705 
     81 H81        32.6370   26.7859    2.1376 H         1 UNK         0.1334 
     82 H82        32.7019   23.2988    4.6247 H         1 UNK         0.1417 
     83 H83        31.3498   23.0035    0.5641 H         1 UNK         0.1562 
     84 H84        32.1616   21.1535    3.7499 H         1 UNK         0.0748 
     85 H85        32.1370   20.9323    2.0199 H         1 UNK         0.0748 
     86 H86        28.6552   21.8778    4.8414 H         1 UNK         0.0940 
     87 H87        30.1606   22.7294    4.7158 H         1 UNK         0.0940 
     88 H88        29.1626   23.8198    2.5356 H         1 UNK         0.0703 
     89 H89        26.8845   22.2852    3.3665 H         1 UNK         0.3081 
     90 H90        25.2013   22.2703    1.3421 H         1 UNK         0.0719 
     91 H91        23.2258   22.7893    2.8674 H         1 UNK         0.0809 
     92 H92        24.6662   22.3858    3.7806 H         1 UNK         0.0809 
     93 H93        24.1699   24.0671    3.6286 H         1 UNK         0.0809 
     94 H94        24.7050   25.1320    1.0116 H         1 UNK         0.2990 
     95 H95        23.5190   24.7737   -2.1218 H         1 UNK         0.0690 
     96 H96        21.4122   26.0252   -1.6809 H         1 UNK         0.0788 
     97 H97        21.4420   25.5209    0.0102 H         1 UNK         0.0788 
     98 H98        21.2175   24.3317   -1.2646 H         1 UNK         0.0788 
     99 H99        23.3872   27.0031   -0.2936 H         1 UNK         0.2993 
    100 H100       25.2941   28.7192   -1.0488 H         1 UNK         0.0949 
    101 H101       25.7891   27.3150    1.6345 H         1 UNK         0.0767 
    102 H102       25.8232   29.0571    1.4003 H         1 UNK         0.0767 
    103 H103       24.3259   28.1790    1.1725 H         1 UNK         0.0767 
    104 H104       27.7694   27.8087    0.2179 H         1 UNK         0.3013 
    105 H105       28.4566   25.9568    2.6213 H         1 UNK         0.3121 
    106 H106       29.1260   27.4092    4.9883 H         1 UNK         0.0774 
    107 H107       26.8858   28.5927    5.1463 H         1 UNK         0.0815 
    108 H108       26.2047   27.4503    3.9971 H         1 UNK         0.0815 
    109 H109       26.7390   26.9012    5.5825 H         1 UNK         0.0815 
    110 H110       29.0121   29.7516    4.4516 H         1 UNK         0.2987 
    111 H111       29.5834   31.5124    3.2578 H         1 UNK         0.0949 
    112 H112       28.3089   30.2684    0.7678 H         1 UNK         0.0806 
    113 H113       27.4249   31.1597    1.9989 H         1 UNK         0.0806 
    114 H114       28.6540   31.9682    1.0494 H         1 UNK         0.0806 
    115 H115       30.4246   31.2439    0.2557 H         1 UNK         0.3010 
    116 H116       32.3876   31.4172   -0.7523 H         1 UNK         0.0829 
    117 H117       32.2364   28.9731   -0.9285 H         1 UNK         0.0813 
    118 H118       33.9123   29.4182   -0.6960 H         1 UNK         0.0813 
    119 H119       32.9843   28.7462    0.6433 H         1 UNK         0.0813 
    120 H120       34.3815   29.8654    1.5828 H         1 UNK         0.3038 
    121 H121       35.8111   32.3091    2.2806 H         1 UNK         0.0769 
    122 H122       37.2925   30.7178    3.5037 H         1 UNK         0.0811 
    123 H123       37.0116   30.1646    1.8634 H         1 UNK         0.0811 
    124 H124       36.1630   29.4036    3.2096 H         1 UNK         0.0811 
    125 H125       33.0023   30.8909    3.5038 H         1 UNK         0.3204 
    126 H126       31.6647   31.2917    5.1761 H         1 UNK         0.0748 
    127 H127       33.6741   33.1591    6.5251 H         1 UNK         0.0771 
    128 H128       32.4949   33.6642    5.3133 H         1 UNK         0.0771 
    129 H129       31.9578   33.0248    6.8576 H         1 UNK         0.0771 
    130 H130       34.1454   29.4197    5.1920 H         1 UNK         0.2980 
    131 H131       34.8727   27.6677    6.2870 H         1 UNK         0.0545 
    132 H132       35.4673   27.8484   10.0397 H         1 UNK         0.3459 
    133 H133       34.3886   26.7979    9.1599 H         1 UNK         0.3459 
    134 H134       33.2687   26.2865    7.5704 H         1 UNK         0.0616 
    135 H135       32.2232   27.6617    7.8162 H         1 UNK         0.0616 
    136 H136       34.0248   26.6793    4.2441 H         1 UNK         0.0634 
    137 H137       33.9006   25.2941    5.3040 H         1 UNK         0.0634 
@<TRIPOS>BOND
     1    1    2 1    
     2    1   72 1    
     3    1   73 1    
     4    1   74 1    
     5    2    3 2    
     6    2    4 am   BACKBONE|DICT|INTERRES
     7    4    5 1    
     8    4   75 1    
     9    5    6 1    
    10    5   35 1    
    11    5   76 1    
    12    6    7 1    
    13    6   77 1    
    14    6   78 1    
    15    7    8 1    
    16    8    9 1    
    17    8   79 1    
    18    8   80 1    
    19    9   10 ar   
    20    9   14 ar   
    21   10   11 ar   
    22   10   81 1    
    23   11   12 ar   
    24   11   71 1    
    25   12   13 ar   
    26   12   82 1    
    27   13   14 ar   
    28   13   15 1    
    29   14   83 1    
    30   15   16 1    
    31   15   84 1    
    32   15   85 1    
    33   16   17 1    
    34   17   18 1    
    35   17   86 1    
    36   17   87 1    
    37   18   19 1    
    38   18   37 1    
    39   18   88 1    
    40   19   20 am   BACKBONE|DICT|INTERRES
    41   19   89 1    
    42   20   21 2    
    43   20   22 1    
    44   22   23 1    
    45   22   24 1    
    46   22   90 1    
    47   23   91 1    
    48   23   92 1    
    49   23   93 1    
    50   24   25 am   BACKBONE|DICT|INTERRES
    51   24   94 1    
    52   25   26 2    
    53   25   27 1    
    54   27   28 1    
    55   27   29 1    
    56   27   95 1    
    57   28   96 1    
    58   28   97 1    
    59   28   98 1    
    60   29   30 am   BACKBONE|DICT|INTERRES
    61   29   99 1    
    62   30   31 2    
    63   30   32 1    
    64   32   33 1    
    65   32   34 1    
    66   32  100 1    
    67   33  101 1    
    68   33  102 1    
    69   33  103 1    
    70   34   35 am   BACKBONE|DICT|INTERRES
    71   34  104 1    
    72   35   36 2    
    73   37   38 2    
    74   37   39 am   BACKBONE|DICT|INTERRES
    75   39   40 1    
    76   39  105 1    
    77   40   41 1    
    78   40   42 1    
    79   40  106 1    
    80   41  107 1    
    81   41  108 1    
    82   41  109 1    
    83   42   43 2    
    84   42   44 am   BACKBONE|DICT|INTERRES
    85   44   45 1    
    86   44  110 1    
    87   45   46 1    
    88   45   47 1    
    89   45  111 1    
    90   46  112 1    
    91   46  113 1    
    92   46  114 1    
    93   47   48 2    
    94   47   49 am   BACKBONE|DICT|INTERRES
    95   49   50 1    
    96   49  115 1    
    97   50   51 1    
    98   50   52 1    
    99   50  116 1    
   100   51  117 1    
   101   51  118 1    
   102   51  119 1    
   103   52   53 2    
   104   52   54 am   BACKBONE|DICT|INTERRES
   105   54   55 1    
   106   54  120 1    
   107   55   56 1    
   108   55   57 1    
   109   55  121 1    
   110   56  122 1    
   111   56  123 1    
   112   56  124 1    
   113   57   58 2    
   114   57   59 am   BACKBONE|DICT|INTERRES
   115   59   60 1    
   116   59  125 1    
   117   60   61 1    
   118   60   62 1    
   119   60  126 1    
   120   61  127 1    
   121   61  128 1    
   122   61  129 1    
   123   62   63 2    
   124   62   64 am   BACKBONE|DICT|INTERRES
   125   64   65 1    
   126   64  130 1    
   127   65   66 1    
   128   65   69 1    
   129   65  131 1    
   130   66   67 am   BACKBONE|DICT|INTERRES
   131   66   68 2    
   132   67  132 1    
   133   67  133 1    
   134   69   70 1    
   135   69  134 1    
   136   69  135 1    
   137   70   71 1    
   138   71  136 1    
   139   71  137 1    
@<TRIPOS>SUBSTRUCTURE
     1 UNK         1 GROUP             0       ****    0 ROOT    
