@<TRIPOS>MOLECULE
3R136
137   139    1
SMALL
USER_CHARGES


@<TRIPOS>ATOM
      1 CA         27.6216   20.3630    4.7925 C.3       0 UNK        -0.1979 
      2 C          27.6091   21.0309    3.4260 C.2       0 UNK         0.4864 
      3 O          26.6287   21.6901    3.0773 O.2       0 UNK        -0.5359 
      4 N          28.6965   20.8782    2.6555 N.am      1 UNK        -0.4318 
      5 CA         28.8731   21.4338    1.3052 C.3       1 UNK         0.0824 
      6 C6         30.1581   20.8951    0.6236 C.3       12 UNK        -0.0944 
      7 S7         31.7093   21.2446    1.5352 S.3       12 UNK        -0.2672 
      8 C8         32.7751   21.9774    0.2486 C.3       12 UNK         0.0333 
      9 C9         32.6049   23.4877    0.1412 C.ar      12 UNK        -0.0807 
     10 C10        33.5292   24.3491    0.7398 C.ar      12 UNK        -0.0894 
     11 C11        33.3861   25.7374    0.6305 C.ar      12 UNK        -0.0804 
     12 C12        32.2980   26.2604   -0.0775 C.ar      12 UNK        -0.0824 
     13 C13        31.3735   25.4104   -0.6990 C.ar      12 UNK        -0.0762 
     14 C14        31.5430   24.0278   -0.5865 C.ar      12 UNK        -0.0782 
     15 C15        30.1664   25.9196   -1.4859 C.3       12 UNK         0.0230 
     16 S16        30.3062   27.6110   -2.1610 S.3       12 UNK        -0.2608 
     17 C17        29.5227   28.6109   -0.8515 C.3       12 UNK        -0.0989 
     18 CA         28.0067   28.8100   -1.1111 C.3       5 UNK         0.0716 
     19 N          27.2568   27.5625   -0.9657 N.am      5 UNK        -0.4135 
     20 C          26.3524   27.0897   -1.8326 C.2       4 UNK         0.5031 
     21 O          26.0248   27.6677   -2.8698 O.2       4 UNK        -0.5229 
     22 CA         25.7083   25.7281   -1.5035 C.3       4 UNK         0.0329 
     23 CB         26.3510   24.6143   -2.3462 C.3       4 UNK        -0.2001 
     24 N          25.8033   25.3709   -0.0853 N.am      4 UNK        -0.4303 
     25 C          25.0783   25.9480    0.8856 C.2       3 UNK         0.5044 
     26 O          24.1919   26.7753    0.6725 O.2       3 UNK        -0.5152 
     27 CA         25.4107   25.5726    2.3423 C.3       3 UNK         0.0319 
     28 CB         24.4238   24.5156    2.8621 C.3       3 UNK        -0.2001 
     29 N          26.7797   25.0903    2.5480 N.am      3 UNK        -0.4354 
     30 C          27.8983   25.7852    2.2902 C.2       2 UNK         0.4964 
     31 O          27.9052   26.9267    1.8295 O.2       2 UNK        -0.5047 
     32 CA         29.2386   25.0801    2.5454 C.3       2 UNK         0.0288 
     33 CB         29.7079   25.3766    3.9753 C.3       2 UNK        -0.2113 
     34 N          29.2091   23.6293    2.3516 N.am      2 UNK        -0.4145 
     35 C          28.8002   22.9745    1.2539 C.2       1 UNK         0.5006 
     36 O          28.3524   23.5276    0.2473 O.2       1 UNK        -0.5103 
     37 C          27.4168   29.8730   -0.1706 C.2       5 UNK         0.5055 
     38 O          27.1390   30.9850   -0.6221 O.2       5 UNK        -0.5220 
     39 N          27.2384   29.5165    1.1124 N.am      6 UNK        -0.4450 
     40 CA         26.6924   30.2958    2.2347 C.3       6 UNK         0.0367 
     41 CB         25.2272   30.6971    1.9789 C.3       6 UNK        -0.1929 
     42 C          27.5414   31.5128    2.6486 C.2       6 UNK         0.5070 
     43 O          27.8455   31.6685    3.8307 O.2       6 UNK        -0.5237 
     44 N          27.9364   32.3372    1.6733 N.am      7 UNK        -0.4739 
     45 CA         28.7533   33.5436    1.8344 C.3       7 UNK         0.0276 
     46 CB         28.5161   34.4563    0.6189 C.3       7 UNK        -0.1927 
     47 C          30.2576   33.2618    2.0217 C.2       7 UNK         0.5013 
     48 O          31.0254   34.2115    2.1805 O.2       7 UNK        -0.5193 
     49 N          30.6592   31.9816    1.9874 N.am      8 UNK        -0.4253 
     50 CA         32.0408   31.5138    2.1398 C.3       8 UNK         0.0242 
     51 CB         32.0956   29.9962    1.9003 C.3       8 UNK        -0.2000 
     52 C          32.6781   31.8593    3.4971 C.2       8 UNK         0.4948 
     53 O          33.8894   32.0772    3.5475 O.2       8 UNK        -0.5275 
     54 N          31.8607   31.8928    4.5613 N.am      9 UNK        -0.4246 
     55 CA         32.1645   32.2549    5.9553 C.3       9 UNK         0.0261 
     56 CB         32.6101   33.7265    6.0624 C.3       9 UNK        -0.1959 
     57 C          33.1555   31.3249    6.6820 C.2       9 UNK         0.5033 
     58 O          32.8686   30.9054    7.8039 O.2       9 UNK        -0.5390 
     59 N          34.2970   31.0266    6.0500 N.am      10 UNK        -0.4215 
     60 CA         35.3286   30.1147    6.5484 C.3       10 UNK         0.0240 
     61 CB         36.6175   30.2973    5.7304 C.3       10 UNK        -0.1982 
     62 C          34.8651   28.6501    6.5209 C.2       10 UNK         0.4970 
     63 O          35.1047   27.9205    7.4838 O.2       10 UNK        -0.4916 
     64 N          34.1972   28.2595    5.4287 N.am      11 UNK        -0.4279 
     65 CA         33.5124   26.9692    5.2936 C.3       11 UNK         0.1003 
     66 C          32.1653   26.9873    6.0611 C.2       11 UNK         0.5709 
     67 N          31.8414   25.9206    6.7789 N.am      11 UNK        -0.7358 
     68 O          31.3973   27.9439    5.9768 O.2       11 UNK        -0.4999 
     69 C69        33.3019   26.5834    3.8071 C.3       12 UNK        -0.0954 
     70 S70        34.8818   26.3108    2.9443 S.3       12 UNK        -0.2268 
     71 C71        34.4327   26.6814    1.2173 C.3       12 UNK         0.0203 
     72 H72        26.7959   19.6564    4.8710 H         1 UNK         0.0888 
     73 H73        28.5499   19.8216    4.9738 H         1 UNK         0.0888 
     74 H74        27.5059   21.1110    5.5764 H         1 UNK         0.0888 
     75 H75        29.4766   20.3358    3.0005 H         1 UNK         0.3017 
     76 H76        28.0242   21.0792    0.7166 H         1 UNK         0.0873 
     77 H77        30.0801   19.8114    0.5225 H         1 UNK         0.0745 
     78 H78        30.2271   21.2668   -0.3993 H         1 UNK         0.0745 
     79 H79        32.5808   21.5048   -0.7153 H         1 UNK         0.0705 
     80 H80        33.8122   21.7401    0.4903 H         1 UNK         0.0705 
     81 H81        34.3698   23.9392    1.2829 H         1 UNK         0.1334 
     82 H82        32.1880   27.3321   -0.1585 H         1 UNK         0.1417 
     83 H83        30.8337   23.3678   -1.0653 H         1 UNK         0.1562 
     84 H84        29.2862   25.8401   -0.8500 H         1 UNK         0.0748 
     85 H85        29.9868   25.2539   -2.3315 H         1 UNK         0.0748 
     86 H86        30.0336   29.5758   -0.8413 H         1 UNK         0.0940 
     87 H87        29.7091   28.1567    0.1237 H         1 UNK         0.0940 
     88 H88        27.8921   29.1921   -2.1281 H         1 UNK         0.0703 
     89 H89        27.4196   27.0462   -0.1097 H         1 UNK         0.3081 
     90 H90        24.6517   25.7912   -1.7727 H         1 UNK         0.0719 
     91 H91        25.8731   23.6517   -2.1635 H         1 UNK         0.0809 
     92 H92        26.2550   24.8263   -3.4120 H         1 UNK         0.0809 
     93 H93        27.4144   24.5059   -2.1309 H         1 UNK         0.0809 
     94 H94        26.5183   24.6975    0.1686 H         1 UNK         0.2990 
     95 H95        25.2915   26.4775    2.9419 H         1 UNK         0.0690 
     96 H96        23.3924   24.8535    2.7513 H         1 UNK         0.0788 
     97 H97        24.5840   24.3088    3.9205 H         1 UNK         0.0788 
     98 H98        24.5202   23.5742    2.3193 H         1 UNK         0.0788 
     99 H99        26.8740   24.1420    2.8889 H         1 UNK         0.2993 
    100 H100       29.9693   25.4880    1.8448 H         1 UNK         0.0949 
    101 H101       28.9796   25.0472    4.7176 H         1 UNK         0.0767 
    102 H102       30.6504   24.8785    4.1974 H         1 UNK         0.0767 
    103 H103       29.8580   26.4475    4.1183 H         1 UNK         0.0767 
    104 H104       29.5629   23.0692    3.1130 H         1 UNK         0.3013 
    105 H105       27.5282   28.5746    1.3776 H         1 UNK         0.3121 
    106 H106       26.6958   29.6131    3.0864 H         1 UNK         0.0774 
    107 H107       25.1310   31.3871    1.1402 H         1 UNK         0.0815 
    108 H108       24.8008   31.1897    2.8537 H         1 UNK         0.0815 
    109 H109       24.6110   29.8233    1.7657 H         1 UNK         0.0815 
    110 H110       27.6486   32.0959    0.7259 H         1 UNK         0.2987 
    111 H111       28.4162   34.0711    2.7295 H         1 UNK         0.0949 
    112 H112       28.8381   33.9819   -0.3090 H         1 UNK         0.0806 
    113 H113       27.4616   34.7130    0.5158 H         1 UNK         0.0806 
    114 H114       29.0663   35.3934    0.7153 H         1 UNK         0.0806 
    115 H115       29.9486   31.2792    1.8490 H         1 UNK         0.3010 
    116 H116       32.6403   32.0046    1.3701 H         1 UNK         0.0829 
    117 H117       33.1079   29.6205    2.0507 H         1 UNK         0.0813 
    118 H118       31.4402   29.4516    2.5815 H         1 UNK         0.0813 
    119 H119       31.8093   29.7445    0.8798 H         1 UNK         0.0813 
    120 H120       30.8920   31.6580    4.3916 H         1 UNK         0.3038 
    121 H121       31.2157   32.1666    6.4872 H         1 UNK         0.0769 
    122 H122       33.5551   33.9069    5.5490 H         1 UNK         0.0811 
    123 H123       32.7471   34.0172    7.1048 H         1 UNK         0.0811 
    124 H124       31.8650   34.3970    5.6339 H         1 UNK         0.0811 
    125 H125       34.4215   31.4248    5.1191 H         1 UNK         0.3204 
    126 H126       35.5425   30.3783    7.5865 H         1 UNK         0.0748 
    127 H127       36.9938   31.3176    5.8083 H         1 UNK         0.0771 
    128 H128       37.4052   29.6336    6.0900 H         1 UNK         0.0771 
    129 H129       36.4623   30.0779    4.6731 H         1 UNK         0.0771 
    130 H130       34.0275   28.9317    4.6977 H         1 UNK         0.2980 
    131 H131       34.1455   26.2024    5.7455 H         1 UNK         0.0545 
    132 H132       30.9636   25.9144    7.2734 H         1 UNK         0.3459 
    133 H133       32.4621   25.1299    6.8505 H         1 UNK         0.3459 
    134 H134       32.7378   25.6541    3.7259 H         1 UNK         0.0616 
    135 H135       32.7213   27.3455    3.2852 H         1 UNK         0.0616 
    136 H136       34.1009   27.7175    1.1558 H         1 UNK         0.0634 
    137 H137       35.3342   26.6151    0.6071 H         1 UNK         0.0634 
@<TRIPOS>BOND
     1    1    2 1    
     2    1   72 1    
     3    1   73 1    
     4    1   74 1    
     5    2    3 2    
     6    2    4 am   BACKBONE|DICT|INTERRES
     7    4    5 1    
     8    4   75 1    
     9    5    6 1    
    10    5   35 1    
    11    5   76 1    
    12    6    7 1    
    13    6   77 1    
    14    6   78 1    
    15    7    8 1    
    16    8    9 1    
    17    8   79 1    
    18    8   80 1    
    19    9   10 ar   
    20    9   14 ar   
    21   10   11 ar   
    22   10   81 1    
    23   11   12 ar   
    24   11   71 1    
    25   12   13 ar   
    26   12   82 1    
    27   13   14 ar   
    28   13   15 1    
    29   14   83 1    
    30   15   16 1    
    31   15   84 1    
    32   15   85 1    
    33   16   17 1    
    34   17   18 1    
    35   17   86 1    
    36   17   87 1    
    37   18   19 1    
    38   18   37 1    
    39   18   88 1    
    40   19   20 am   BACKBONE|DICT|INTERRES
    41   19   89 1    
    42   20   21 2    
    43   20   22 1    
    44   22   23 1    
    45   22   24 1    
    46   22   90 1    
    47   23   91 1    
    48   23   92 1    
    49   23   93 1    
    50   24   25 am   BACKBONE|DICT|INTERRES
    51   24   94 1    
    52   25   26 2    
    53   25   27 1    
    54   27   28 1    
    55   27   29 1    
    56   27   95 1    
    57   28   96 1    
    58   28   97 1    
    59   28   98 1    
    60   29   30 am   BACKBONE|DICT|INTERRES
    61   29   99 1    
    62   30   31 2    
    63   30   32 1    
    64   32   33 1    
    65   32   34 1    
    66   32  100 1    
    67   33  101 1    
    68   33  102 1    
    69   33  103 1    
    70   34   35 am   BACKBONE|DICT|INTERRES
    71   34  104 1    
    72   35   36 2    
    73   37   38 2    
    74   37   39 am   BACKBONE|DICT|INTERRES
    75   39   40 1    
    76   39  105 1    
    77   40   41 1    
    78   40   42 1    
    79   40  106 1    
    80   41  107 1    
    81   41  108 1    
    82   41  109 1    
    83   42   43 2    
    84   42   44 am   BACKBONE|DICT|INTERRES
    85   44   45 1    
    86   44  110 1    
    87   45   46 1    
    88   45   47 1    
    89   45  111 1    
    90   46  112 1    
    91   46  113 1    
    92   46  114 1    
    93   47   48 2    
    94   47   49 am   BACKBONE|DICT|INTERRES
    95   49   50 1    
    96   49  115 1    
    97   50   51 1    
    98   50   52 1    
    99   50  116 1    
   100   51  117 1    
   101   51  118 1    
   102   51  119 1    
   103   52   53 2    
   104   52   54 am   BACKBONE|DICT|INTERRES
   105   54   55 1    
   106   54  120 1    
   107   55   56 1    
   108   55   57 1    
   109   55  121 1    
   110   56  122 1    
   111   56  123 1    
   112   56  124 1    
   113   57   58 2    
   114   57   59 am   BACKBONE|DICT|INTERRES
   115   59   60 1    
   116   59  125 1    
   117   60   61 1    
   118   60   62 1    
   119   60  126 1    
   120   61  127 1    
   121   61  128 1    
   122   61  129 1    
   123   62   63 2    
   124   62   64 am   BACKBONE|DICT|INTERRES
   125   64   65 1    
   126   64  130 1    
   127   65   66 1    
   128   65   69 1    
   129   65  131 1    
   130   66   67 am   BACKBONE|DICT|INTERRES
   131   66   68 2    
   132   67  132 1    
   133   67  133 1    
   134   69   70 1    
   135   69  134 1    
   136   69  135 1    
   137   70   71 1    
   138   71  136 1    
   139   71  137 1    
@<TRIPOS>SUBSTRUCTURE
     1 UNK         1 GROUP             0       ****    0 ROOT    
