@<TRIPOS>MOLECULE
3R136
137   139    1
SMALL
USER_CHARGES


@<TRIPOS>ATOM
      1 CA         27.2326   17.3459   -0.7796 C.3       0 UNK        -0.1979 
      2 C          27.9486   18.0917    0.3369 C.2       0 UNK         0.4864 
      3 O          27.9080   17.6494    1.4857 O.2       0 UNK        -0.5359 
      4 N          28.5968   19.2171    0.0020 N.am      1 UNK        -0.4318 
      5 CA         29.3614   20.0892    0.9071 C.3       1 UNK         0.0824 
      6 C6         30.6846   19.4414    1.4113 C.3       12 UNK        -0.0944 
      7 S7         31.9178   19.3587    0.0620 S.3       12 UNK        -0.2672 
      8 C8         33.0509   20.7438    0.4480 C.3       12 UNK         0.0333 
      9 C9         32.3053   22.0333    0.7686 C.ar      12 UNK        -0.0807 
     10 C10        32.2292   22.4829    2.0900 C.ar      12 UNK        -0.0894 
     11 C11        31.4478   23.5903    2.4278 C.ar      12 UNK        -0.0804 
     12 C12        30.7421   24.2534    1.4165 C.ar      12 UNK        -0.0824 
     13 C13        30.8401   23.8403    0.0830 C.ar      12 UNK        -0.0762 
     14 C14        31.6387   22.7384   -0.2375 C.ar      12 UNK        -0.0782 
     15 C15        30.0126   24.5213   -0.9995 C.3       12 UNK         0.0230 
     16 S16        30.8998   25.8664   -1.8491 S.3       12 UNK        -0.2608 
     17 C17        30.9641   27.1915   -0.5946 C.3       12 UNK        -0.0989 
     18 CA         29.7677   28.1786   -0.6782 C.3       5 UNK         0.0716 
     19 N          28.5013   27.5158   -0.3557 N.am      5 UNK        -0.4135 
     20 C          27.2819   27.9224   -0.7313 C.2       4 UNK         0.5031 
     21 O          27.0763   28.9030   -1.4463 O.2       4 UNK        -0.5229 
     22 CA         26.0844   27.1013   -0.2096 C.3       4 UNK         0.0329 
     23 CB         25.5558   26.1678   -1.3106 C.3       4 UNK        -0.2001 
     24 N          26.3825   26.3016    0.9853 N.am      4 UNK        -0.4303 
     25 C          26.7201   26.7840    2.1875 C.2       3 UNK         0.5044 
     26 O          26.7967   27.9917    2.4131 O.2       3 UNK        -0.5152 
     27 CA         27.0932   25.7802    3.3060 C.3       3 UNK         0.0319 
     28 CB         26.7155   26.3117    4.7010 C.3       3 UNK        -0.2001 
     29 N          26.5921   24.4019    3.1727 N.am      3 UNK        -0.4354 
     30 C          26.9489   23.5150    2.2348 C.2       2 UNK         0.4964 
     31 O          27.6203   23.8107    1.2457 O.2       2 UNK        -0.5047 
     32 CA         26.4363   22.0737    2.3959 C.3       2 UNK         0.0288 
     33 CB         24.9883   21.9568    1.8921 C.3       2 UNK        -0.2113 
     34 N          27.2816   21.1611    1.6235 N.am      2 UNK        -0.4145 
     35 C          28.4871   20.7222    2.0154 C.2       1 UNK         0.5006 
     36 O          28.9103   20.8349    3.1683 O.2       1 UNK        -0.5103 
     37 C          30.0344   29.4207    0.2049 C.2       5 UNK         0.5055 
     38 O          31.0133   30.1207   -0.0570 O.2       5 UNK        -0.5220 
     39 N          29.2221   29.6605    1.2494 N.am      6 UNK        -0.4450 
     40 CA         29.3915   30.7713    2.1908 C.3       6 UNK         0.0367 
     41 CB         28.3986   30.6173    3.3544 C.3       6 UNK        -0.1929 
     42 C          29.2359   32.1535    1.5371 C.2       6 UNK         0.5070 
     43 O          28.4224   32.3220    0.6256 O.2       6 UNK        -0.5237 
     44 N          30.0031   33.1183    2.0495 N.am      7 UNK        -0.4739 
     45 CA         30.0153   34.5101    1.6088 C.3       7 UNK         0.0276 
     46 CB         30.9717   34.6728    0.4067 C.3       7 UNK        -0.1927 
     47 C          30.3550   35.3793    2.8261 C.2       7 UNK         0.5013 
     48 O          29.5596   35.4251    3.7657 O.2       7 UNK        -0.5193 
     49 N          31.5331   36.0197    2.8184 N.am      8 UNK        -0.4253 
     50 CA         32.0774   36.7906    3.9437 C.3       8 UNK         0.0242 
     51 CB         33.2904   37.6017    3.4588 C.3       8 UNK        -0.2000 
     52 C          32.4608   35.9205    5.1579 C.2       8 UNK         0.4948 
     53 O          32.5451   36.4426    6.2705 O.2       8 UNK        -0.5275 
     54 N          32.6737   34.6207    4.9261 N.am      9 UNK        -0.4246 
     55 CA         32.8805   33.5867    5.9311 C.3       9 UNK         0.0261 
     56 CB         34.3805   33.2592    6.0243 C.3       9 UNK        -0.1959 
     57 C          32.0760   32.3505    5.5124 C.2       9 UNK         0.5033 
     58 O          31.7598   32.1958    4.3250 O.2       9 UNK        -0.5390 
     59 N          31.7807   31.4833    6.4896 N.am      10 UNK        -0.4215 
     60 CA         31.1085   30.1979    6.2937 C.3       10 UNK         0.0240 
     61 CB         30.7955   29.5621    7.6581 C.3       10 UNK        -0.1982 
     62 C          31.9673   29.2603    5.4312 C.2       10 UNK         0.4970 
     63 O          33.1080   28.9737    5.7999 O.2       10 UNK        -0.4916 
     64 N          31.4059   28.8433    4.2916 N.am      11 UNK        -0.4279 
     65 CA         32.0606   28.0552    3.2336 C.3       11 UNK         0.1003 
     66 C          33.2499   28.7759    2.5241 C.2       11 UNK         0.5709 
     67 N          33.4151   30.0874    2.6659 N.am      11 UNK        -0.7358 
     68 O          34.0161   28.1443    1.8011 O.2       11 UNK        -0.4999 
     69 C69        32.3924   26.6014    3.6759 C.3       12 UNK        -0.0954 
     70 S70        30.8988   25.7171    4.2371 S.3       12 UNK        -0.2268 
     71 C71        31.3359   23.9780    3.9032 C.3       12 UNK         0.0203 
     72 H72        27.3499   17.8412   -1.7433 H         1 UNK         0.0888 
     73 H73        27.6287   16.3347   -0.8687 H         1 UNK         0.0888 
     74 H74        26.1672   17.2768   -0.5616 H         1 UNK         0.0888 
     75 H75        28.5931   19.5081   -0.9659 H         1 UNK         0.3017 
     76 H76        29.6368   20.9496    0.2977 H         1 UNK         0.0873 
     77 H77        31.1188   19.9897    2.2470 H         1 UNK         0.0745 
     78 H78        30.5049   18.4346    1.7902 H         1 UNK         0.0745 
     79 H79        33.6904   20.4520    1.2826 H         1 UNK         0.0705 
     80 H80        33.7147   20.9082   -0.4018 H         1 UNK         0.0705 
     81 H81        32.7424   21.9367    2.8699 H         1 UNK         0.1334 
     82 H82        30.0865   25.0732    1.6685 H         1 UNK         0.1417 
     83 H83        31.6921   22.3902   -1.2603 H         1 UNK         0.1562 
     84 H84        29.0786   24.8975   -0.5868 H         1 UNK         0.0748 
     85 H85        29.7190   23.7822   -1.7464 H         1 UNK         0.0748 
     86 H86        31.9039   27.7213   -0.7656 H         1 UNK         0.0940 
     87 H87        31.0559   26.7628    0.4016 H         1 UNK         0.0940 
     88 H88        29.7051   28.5437   -1.7058 H         1 UNK         0.0703 
     89 H89        28.5605   26.6911    0.2204 H         1 UNK         0.3081 
     90 H90        25.2952   27.8092    0.0521 H         1 UNK         0.0719 
     91 H91        26.2971   25.4197   -1.5953 H         1 UNK         0.0809 
     92 H92        24.6561   25.6434   -0.9882 H         1 UNK         0.0809 
     93 H93        25.2968   26.7296   -2.2093 H         1 UNK         0.0809 
     94 H94        26.4493   25.2962    0.8631 H         1 UNK         0.2990 
     95 H95        28.1805   25.7142    3.2725 H         1 UNK         0.0690 
     96 H96        27.0714   25.6476    5.4889 H         1 UNK         0.0788 
     97 H97        25.6357   26.4186    4.8102 H         1 UNK         0.0788 
     98 H98        27.1618   27.2895    4.8888 H         1 UNK         0.0788 
     99 H99        25.9840   24.0864    3.9150 H         1 UNK         0.2993 
    100 H100       26.4757   21.7976    3.4520 H         1 UNK         0.0949 
    101 H101       24.3185   22.5975    2.4672 H         1 UNK         0.0767 
    102 H102       24.8989   22.2488    0.8446 H         1 UNK         0.0767 
    103 H103       24.6179   20.9358    1.9878 H         1 UNK         0.0767 
    104 H104       27.0335   21.0449    0.6522 H         1 UNK         0.3013 
    105 H105       28.4053   29.0775    1.3879 H         1 UNK         0.3121 
    106 H106       30.4065   30.7064    2.5827 H         1 UNK         0.0774 
    107 H107       28.5482   31.3979    4.1018 H         1 UNK         0.0815 
    108 H108       27.3667   30.6944    3.0087 H         1 UNK         0.0815 
    109 H109       28.5054   29.6570    3.8577 H         1 UNK         0.0815 
    110 H110       30.6000   32.8946    2.8427 H         1 UNK         0.2987 
    111 H111       29.0105   34.8011    1.2937 H         1 UNK         0.0949 
    112 H112       31.9841   34.3391    0.6375 H         1 UNK         0.0806 
    113 H113       30.6251   34.0879   -0.4458 H         1 UNK         0.0806 
    114 H114       31.0220   35.7112    0.0759 H         1 UNK         0.0806 
    115 H115       32.1211   35.9320    2.0018 H         1 UNK         0.3010 
    116 H116       31.3075   37.4901    4.2766 H         1 UNK         0.0829 
    117 H117       33.0180   38.2802    2.6502 H         1 UNK         0.0813 
    118 H118       33.6996   38.2113    4.2659 H         1 UNK         0.0813 
    119 H119       34.0928   36.9550    3.1012 H         1 UNK         0.0813 
    120 H120       32.5266   34.2626    3.9921 H         1 UNK         0.3038 
    121 H121       32.5144   33.9270    6.9023 H         1 UNK         0.0769 
    122 H122       34.9596   34.1382    6.3079 H         1 UNK         0.0811 
    123 H123       34.7724   32.8929    5.0743 H         1 UNK         0.0811 
    124 H124       34.5708   32.4902    6.7740 H         1 UNK         0.0811 
    125 H125       32.1111   31.6774    7.4239 H         1 UNK         0.3204 
    126 H126       30.1617   30.3920    5.7864 H         1 UNK         0.0748 
    127 H127       30.1474   30.2030    8.2563 H         1 UNK         0.0771 
    128 H128       30.2810   28.6081    7.5335 H         1 UNK         0.0771 
    129 H129       31.7024   29.3699    8.2333 H         1 UNK         0.0771 
    130 H130       30.4606   29.1275    4.0907 H         1 UNK         0.2980 
    131 H131       31.3080   27.9723    2.4516 H         1 UNK         0.0545 
    132 H132       34.1767   30.5352    2.1828 H         1 UNK         0.3459 
    133 H133       32.7955   30.6367    3.2463 H         1 UNK         0.3459 
    134 H134       33.1320   26.5934    4.4776 H         1 UNK         0.0616 
    135 H135       32.8303   26.0424    2.8474 H         1 UNK         0.0616 
    136 H136       32.2723   23.7596    4.4190 H         1 UNK         0.0634 
    137 H137       30.5752   23.3438    4.3604 H         1 UNK         0.0634 
@<TRIPOS>BOND
     1    1    2 1    
     2    1   72 1    
     3    1   73 1    
     4    1   74 1    
     5    2    3 2    
     6    2    4 am   BACKBONE|DICT|INTERRES
     7    4    5 1    
     8    4   75 1    
     9    5    6 1    
    10    5   35 1    
    11    5   76 1    
    12    6    7 1    
    13    6   77 1    
    14    6   78 1    
    15    7    8 1    
    16    8    9 1    
    17    8   79 1    
    18    8   80 1    
    19    9   10 ar   
    20    9   14 ar   
    21   10   11 ar   
    22   10   81 1    
    23   11   12 ar   
    24   11   71 1    
    25   12   13 ar   
    26   12   82 1    
    27   13   14 ar   
    28   13   15 1    
    29   14   83 1    
    30   15   16 1    
    31   15   84 1    
    32   15   85 1    
    33   16   17 1    
    34   17   18 1    
    35   17   86 1    
    36   17   87 1    
    37   18   19 1    
    38   18   37 1    
    39   18   88 1    
    40   19   20 am   BACKBONE|DICT|INTERRES
    41   19   89 1    
    42   20   21 2    
    43   20   22 1    
    44   22   23 1    
    45   22   24 1    
    46   22   90 1    
    47   23   91 1    
    48   23   92 1    
    49   23   93 1    
    50   24   25 am   BACKBONE|DICT|INTERRES
    51   24   94 1    
    52   25   26 2    
    53   25   27 1    
    54   27   28 1    
    55   27   29 1    
    56   27   95 1    
    57   28   96 1    
    58   28   97 1    
    59   28   98 1    
    60   29   30 am   BACKBONE|DICT|INTERRES
    61   29   99 1    
    62   30   31 2    
    63   30   32 1    
    64   32   33 1    
    65   32   34 1    
    66   32  100 1    
    67   33  101 1    
    68   33  102 1    
    69   33  103 1    
    70   34   35 am   BACKBONE|DICT|INTERRES
    71   34  104 1    
    72   35   36 2    
    73   37   38 2    
    74   37   39 am   BACKBONE|DICT|INTERRES
    75   39   40 1    
    76   39  105 1    
    77   40   41 1    
    78   40   42 1    
    79   40  106 1    
    80   41  107 1    
    81   41  108 1    
    82   41  109 1    
    83   42   43 2    
    84   42   44 am   BACKBONE|DICT|INTERRES
    85   44   45 1    
    86   44  110 1    
    87   45   46 1    
    88   45   47 1    
    89   45  111 1    
    90   46  112 1    
    91   46  113 1    
    92   46  114 1    
    93   47   48 2    
    94   47   49 am   BACKBONE|DICT|INTERRES
    95   49   50 1    
    96   49  115 1    
    97   50   51 1    
    98   50   52 1    
    99   50  116 1    
   100   51  117 1    
   101   51  118 1    
   102   51  119 1    
   103   52   53 2    
   104   52   54 am   BACKBONE|DICT|INTERRES
   105   54   55 1    
   106   54  120 1    
   107   55   56 1    
   108   55   57 1    
   109   55  121 1    
   110   56  122 1    
   111   56  123 1    
   112   56  124 1    
   113   57   58 2    
   114   57   59 am   BACKBONE|DICT|INTERRES
   115   59   60 1    
   116   59  125 1    
   117   60   61 1    
   118   60   62 1    
   119   60  126 1    
   120   61  127 1    
   121   61  128 1    
   122   61  129 1    
   123   62   63 2    
   124   62   64 am   BACKBONE|DICT|INTERRES
   125   64   65 1    
   126   64  130 1    
   127   65   66 1    
   128   65   69 1    
   129   65  131 1    
   130   66   67 am   BACKBONE|DICT|INTERRES
   131   66   68 2    
   132   67  132 1    
   133   67  133 1    
   134   69   70 1    
   135   69  134 1    
   136   69  135 1    
   137   70   71 1    
   138   71  136 1    
   139   71  137 1    
@<TRIPOS>SUBSTRUCTURE
     1 UNK         1 GROUP             0       ****    0 ROOT    
