@<TRIPOS>MOLECULE
3R136
137   139    1
SMALL
USER_CHARGES


@<TRIPOS>ATOM
      1 CA         26.4164   23.3659    0.6090 C.3       0 UNK        -0.1979 
      2 C          27.3422   22.4758   -0.2052 C.2       0 UNK         0.4864 
      3 O          26.9976   22.0940   -1.3244 O.2       0 UNK        -0.5359 
      4 N          28.5080   22.1268    0.3565 N.am      1 UNK        -0.4318 
      5 CA         29.4858   21.2012   -0.2368 C.3       1 UNK         0.0824 
      6 C6         30.5350   20.7204    0.7981 C.3       12 UNK        -0.0944 
      7 S7         29.7673   20.0163    2.2981 S.3       12 UNK        -0.2672 
      8 C8         30.8945   20.5851    3.6142 C.3       12 UNK         0.0333 
      9 C9         30.9517   22.1034    3.7478 C.ar      12 UNK        -0.0807 
     10 C10        32.1734   22.7724    3.6078 C.ar      12 UNK        -0.0894 
     11 C11        32.2484   24.1608    3.7610 C.ar      12 UNK        -0.0804 
     12 C12        31.0841   24.8789    4.0454 C.ar      12 UNK        -0.0824 
     13 C13        29.8589   24.2248    4.1926 C.ar      12 UNK        -0.0762 
     14 C14        29.7969   22.8358    4.0453 C.ar      12 UNK        -0.0782 
     15 C15        28.6139   25.0287    4.5276 C.3       12 UNK         0.0230 
     16 S16        27.8449   25.6844    3.0195 S.3       12 UNK        -0.2608 
     17 C17        26.6631   26.8839    3.7193 C.3       12 UNK        -0.0989 
     18 CA         27.1453   28.3469    3.5285 C.3       5 UNK         0.0716 
     19 N          27.3708   28.7345    2.1301 N.am      5 UNK        -0.4135 
     20 C          26.5168   28.6917    1.0972 C.2       4 UNK         0.5031 
     21 O          25.3236   28.4031    1.1998 O.2       4 UNK        -0.5229 
     22 CA         27.0931   29.0444   -0.2855 C.3       4 UNK         0.0329 
     23 CB         26.9907   30.5554   -0.5468 C.3       4 UNK        -0.2001 
     24 N          28.4870   28.6135   -0.4294 N.am      4 UNK        -0.4303 
     25 C          28.8661   27.3333   -0.5497 C.2       3 UNK         0.5044 
     26 O          28.0810   26.3896   -0.6676 O.2       3 UNK        -0.5152 
     27 CA         30.3802   27.0700   -0.4572 C.3       3 UNK         0.0319 
     28 CB         30.8159   27.0901    1.0164 C.3       3 UNK        -0.2001 
     29 N          30.7692   25.7768   -1.0167 N.am      3 UNK        -0.4354 
     30 C          30.6604   25.4022   -2.2994 C.2       2 UNK         0.4964 
     31 O          30.3390   26.1544   -3.2197 O.2       2 UNK        -0.5047 
     32 CA         30.9311   23.9196   -2.5819 C.3       2 UNK         0.0288 
     33 CB         32.4485   23.6570   -2.6784 C.3       2 UNK        -0.2113 
     34 N          30.3082   23.1172   -1.5270 N.am      2 UNK        -0.4145 
     35 C          30.1972   21.7848   -1.4773 C.2       1 UNK         0.5006 
     36 O          30.6277   21.0231   -2.3450 O.2       1 UNK        -0.5103 
     37 C          26.2497   29.3445    4.2850 C.2       5 UNK         0.5055 
     38 O          26.6391   29.8082    5.3574 O.2       5 UNK        -0.5220 
     39 N          25.0814   29.6684    3.7176 N.am      6 UNK        -0.4450 
     40 CA         24.1383   30.6510    4.2523 C.3       6 UNK         0.0367 
     41 CB         22.7801   30.4957    3.5494 C.3       6 UNK        -0.1929 
     42 C          24.6596   32.0910    4.1184 C.2       6 UNK         0.5070 
     43 O          24.5008   32.8805    5.0497 O.2       6 UNK        -0.5237 
     44 N          25.2684   32.4036    2.9658 N.am      7 UNK        -0.4739 
     45 CA         25.8492   33.7160    2.6776 C.3       7 UNK         0.0276 
     46 CB         25.8201   33.9790    1.1623 C.3       7 UNK        -0.1927 
     47 C          27.2759   33.8426    3.2320 C.2       7 UNK         0.5013 
     48 O          27.5692   34.8159    3.9272 O.2       7 UNK        -0.5193 
     49 N          28.1317   32.8635    2.9130 N.am      8 UNK        -0.4253 
     50 CA         29.5488   32.8056    3.2659 C.3       8 UNK         0.0242 
     51 CB         30.3376   33.9022    2.5177 C.3       8 UNK        -0.2000 
     52 C          30.0945   31.4206    2.8980 C.2       8 UNK         0.4948 
     53 O          29.4423   30.6786    2.1544 O.2       8 UNK        -0.5275 
     54 N          31.2966   31.1109    3.3928 N.am      9 UNK        -0.4246 
     55 CA         32.0504   29.9137    3.0446 C.3       9 UNK         0.0261 
     56 CB         31.6894   28.7624    3.9986 C.3       9 UNK        -0.1959 
     57 C          33.5454   30.2223    3.1164 C.2       9 UNK         0.5033 
     58 O          33.9784   30.9098    4.0443 O.2       9 UNK        -0.5390 
     59 N          34.3106   29.6695    2.1658 N.am      10 UNK        -0.4215 
     60 CA         35.7702   29.7940    2.0905 C.3       10 UNK         0.0240 
     61 CB         36.2563   29.2549    0.7350 C.3       10 UNK        -0.1982 
     62 C          36.5064   29.0900    3.2443 C.2       10 UNK         0.4970 
     63 O          37.6049   29.5158    3.6028 O.2       10 UNK        -0.4916 
     64 N          35.8881   28.0431    3.8071 N.am      11 UNK        -0.4279 
     65 CA         36.3674   27.3301    4.9982 C.3       11 UNK         0.1003 
     66 C          36.1186   28.0734    6.3465 C.2       11 UNK         0.5709 
     67 N          35.4270   29.2086    6.3724 N.am      11 UNK        -0.7358 
     68 O          36.5806   27.6184    7.3903 O.2       11 UNK        -0.4999 
     69 C69        35.8817   25.8552    5.0141 C.3       12 UNK        -0.0954 
     70 S70        34.0773   25.6417    5.2159 S.3       12 UNK        -0.2268 
     71 C71        33.5853   24.8816    3.6342 C.3       12 UNK         0.0203 
     72 H72        26.5228   24.4057    0.3013 H         1 UNK         0.0888 
     73 H73        26.6329   23.2980    1.6747 H         1 UNK         0.0888 
     74 H74        25.3781   23.0706    0.4608 H         1 UNK         0.0888 
     75 H75        28.7279   22.4501    1.2883 H         1 UNK         0.3017 
     76 H76        28.9318   20.3241   -0.5791 H         1 UNK         0.0873 
     77 H77        31.1773   19.9531    0.3613 H         1 UNK         0.0745 
     78 H78        31.1948   21.5436    1.0770 H         1 UNK         0.0745 
     79 H79        30.5643   20.1621    4.5639 H         1 UNK         0.0705 
     80 H80        31.8869   20.1724    3.4255 H         1 UNK         0.0705 
     81 H81        33.0711   22.2093    3.3916 H         1 UNK         0.1334 
     82 H82        31.1314   25.9499    4.1705 H         1 UNK         0.1417 
     83 H83        28.8524   22.3223    4.1655 H         1 UNK         0.1562 
     84 H84        28.8770   25.8535    5.1920 H         1 UNK         0.0748 
     85 H85        27.8919   24.4131    5.0663 H         1 UNK         0.0748 
     86 H86        26.5123   26.6630    4.7779 H         1 UNK         0.0940 
     87 H87        25.6941   26.7260    3.2431 H         1 UNK         0.0940 
     88 H88        28.1282   28.4217    3.9967 H         1 UNK         0.0703 
     89 H89        28.2883   29.1336    1.9546 H         1 UNK         0.3081 
     90 H90        26.4918   28.5262   -1.0359 H         1 UNK         0.0719 
     91 H91        27.6081   31.1296    0.1442 H         1 UNK         0.0809 
     92 H92        27.3078   30.8024   -1.5602 H         1 UNK         0.0809 
     93 H93        25.9620   30.9020   -0.4387 H         1 UNK         0.0809 
     94 H94        29.1947   29.3266   -0.3194 H         1 UNK         0.2990 
     95 H95        30.9033   27.8579   -1.0032 H         1 UNK         0.0690 
     96 H96        31.9011   27.1140    1.1136 H         1 UNK         0.0788 
     97 H97        30.4497   26.2142    1.5524 H         1 UNK         0.0788 
     98 H98        30.4135   27.9601    1.5325 H         1 UNK         0.0788 
     99 H99        31.0966   25.0946   -0.3500 H         1 UNK         0.2993 
    100 H100       30.4596   23.6643   -3.5332 H         1 UNK         0.0949 
    101 H101       32.9126   24.3205   -3.4095 H         1 UNK         0.0767 
    102 H102       32.9494   23.8206   -1.7236 H         1 UNK         0.0767 
    103 H103       32.6617   22.6366   -2.9964 H         1 UNK         0.0767 
    104 H104       29.8293   23.6443   -0.8095 H         1 UNK         0.3013 
    105 H105       24.8607   29.2339    2.8238 H         1 UNK         0.3121 
    106 H106       23.9966   30.4452    5.3157 H         1 UNK         0.0774 
    107 H107       22.8574   30.6610    2.4740 H         1 UNK         0.0815 
    108 H108       22.0558   31.2126    3.9387 H         1 UNK         0.0815 
    109 H109       22.3649   29.5001    3.7061 H         1 UNK         0.0815 
    110 H110       25.3431   31.6937    2.2531 H         1 UNK         0.2987 
    111 H111       25.2396   34.4868    3.1556 H         1 UNK         0.0949 
    112 H112       26.4145   33.2549    0.6060 H         1 UNK         0.0806 
    113 H113       24.8018   33.9456    0.7743 H         1 UNK         0.0806 
    114 H114       26.2192   34.9682    0.9336 H         1 UNK         0.0806 
    115 H115       27.8178   32.0701    2.3705 H         1 UNK         0.3010 
    116 H116       29.6484   32.9427    4.3446 H         1 UNK         0.0829 
    117 H117       30.0062   34.9020    2.7973 H         1 UNK         0.0813 
    118 H118       31.4034   33.8513    2.7432 H         1 UNK         0.0813 
    119 H119       30.2285   33.8058    1.4366 H         1 UNK         0.0813 
    120 H120       31.7998   31.7746    3.9686 H         1 UNK         0.3038 
    121 H121       31.8165   29.6363    2.0161 H         1 UNK         0.0769 
    122 H122       31.8927   29.0228    5.0382 H         1 UNK         0.0811 
    123 H123       32.2747   27.8730    3.7671 H         1 UNK         0.0811 
    124 H124       30.6361   28.4939    3.9225 H         1 UNK         0.0811 
    125 H125       33.8700   29.1268    1.4370 H         1 UNK         0.3204 
    126 H126       36.0189   30.8562    2.1458 H         1 UNK         0.0748 
    127 H127       37.3381   29.3596    0.6390 H         1 UNK         0.0771 
    128 H128       36.0197   28.1973    0.6105 H         1 UNK         0.0771 
    129 H129       35.8065   29.8009   -0.0945 H         1 UNK         0.0771 
    130 H130       34.9834   27.7658    3.4614 H         1 UNK         0.2980 
    131 H131       37.4547   27.2800    4.9145 H         1 UNK         0.0545 
    132 H132       35.2859   29.6732    7.2551 H         1 UNK         0.3459 
    133 H133       35.0538   29.6171    5.5265 H         1 UNK         0.3459 
    134 H134       36.2085   25.3578    4.1000 H         1 UNK         0.0616 
    135 H135       36.3704   25.3120    5.8248 H         1 UNK         0.0616 
    136 H136       33.5173   25.6521    2.8652 H         1 UNK         0.0634 
    137 H137       34.3581   24.1830    3.3103 H         1 UNK         0.0634 
@<TRIPOS>BOND
     1    1    2 1    
     2    1   72 1    
     3    1   73 1    
     4    1   74 1    
     5    2    3 2    
     6    2    4 am   BACKBONE|DICT|INTERRES
     7    4    5 1    
     8    4   75 1    
     9    5    6 1    
    10    5   35 1    
    11    5   76 1    
    12    6    7 1    
    13    6   77 1    
    14    6   78 1    
    15    7    8 1    
    16    8    9 1    
    17    8   79 1    
    18    8   80 1    
    19    9   10 ar   
    20    9   14 ar   
    21   10   11 ar   
    22   10   81 1    
    23   11   12 ar   
    24   11   71 1    
    25   12   13 ar   
    26   12   82 1    
    27   13   14 ar   
    28   13   15 1    
    29   14   83 1    
    30   15   16 1    
    31   15   84 1    
    32   15   85 1    
    33   16   17 1    
    34   17   18 1    
    35   17   86 1    
    36   17   87 1    
    37   18   19 1    
    38   18   37 1    
    39   18   88 1    
    40   19   20 am   BACKBONE|DICT|INTERRES
    41   19   89 1    
    42   20   21 2    
    43   20   22 1    
    44   22   23 1    
    45   22   24 1    
    46   22   90 1    
    47   23   91 1    
    48   23   92 1    
    49   23   93 1    
    50   24   25 am   BACKBONE|DICT|INTERRES
    51   24   94 1    
    52   25   26 2    
    53   25   27 1    
    54   27   28 1    
    55   27   29 1    
    56   27   95 1    
    57   28   96 1    
    58   28   97 1    
    59   28   98 1    
    60   29   30 am   BACKBONE|DICT|INTERRES
    61   29   99 1    
    62   30   31 2    
    63   30   32 1    
    64   32   33 1    
    65   32   34 1    
    66   32  100 1    
    67   33  101 1    
    68   33  102 1    
    69   33  103 1    
    70   34   35 am   BACKBONE|DICT|INTERRES
    71   34  104 1    
    72   35   36 2    
    73   37   38 2    
    74   37   39 am   BACKBONE|DICT|INTERRES
    75   39   40 1    
    76   39  105 1    
    77   40   41 1    
    78   40   42 1    
    79   40  106 1    
    80   41  107 1    
    81   41  108 1    
    82   41  109 1    
    83   42   43 2    
    84   42   44 am   BACKBONE|DICT|INTERRES
    85   44   45 1    
    86   44  110 1    
    87   45   46 1    
    88   45   47 1    
    89   45  111 1    
    90   46  112 1    
    91   46  113 1    
    92   46  114 1    
    93   47   48 2    
    94   47   49 am   BACKBONE|DICT|INTERRES
    95   49   50 1    
    96   49  115 1    
    97   50   51 1    
    98   50   52 1    
    99   50  116 1    
   100   51  117 1    
   101   51  118 1    
   102   51  119 1    
   103   52   53 2    
   104   52   54 am   BACKBONE|DICT|INTERRES
   105   54   55 1    
   106   54  120 1    
   107   55   56 1    
   108   55   57 1    
   109   55  121 1    
   110   56  122 1    
   111   56  123 1    
   112   56  124 1    
   113   57   58 2    
   114   57   59 am   BACKBONE|DICT|INTERRES
   115   59   60 1    
   116   59  125 1    
   117   60   61 1    
   118   60   62 1    
   119   60  126 1    
   120   61  127 1    
   121   61  128 1    
   122   61  129 1    
   123   62   63 2    
   124   62   64 am   BACKBONE|DICT|INTERRES
   125   64   65 1    
   126   64  130 1    
   127   65   66 1    
   128   65   69 1    
   129   65  131 1    
   130   66   67 am   BACKBONE|DICT|INTERRES
   131   66   68 2    
   132   67  132 1    
   133   67  133 1    
   134   69   70 1    
   135   69  134 1    
   136   69  135 1    
   137   70   71 1    
   138   71  136 1    
   139   71  137 1    
@<TRIPOS>SUBSTRUCTURE
     1 UNK         1 GROUP             0       ****    0 ROOT    
