@<TRIPOS>MOLECULE
3R136
137   139    1
SMALL
USER_CHARGES


@<TRIPOS>ATOM
      1 CA         27.6961   17.5274    4.0973 C.3       0 UNK        -0.1979 
      2 C          28.1785   18.5871    3.1178 C.2       0 UNK         0.4864 
      3 O          28.6140   18.2481    2.0167 O.2       0 UNK        -0.5359 
      4 N          28.1020   19.8676    3.5088 N.am      1 UNK        -0.4318 
      5 CA         28.5218   21.0202    2.6976 C.3       1 UNK         0.0824 
      6 C6         28.7912   22.2643    3.5895 C.3       12 UNK        -0.0944 
      7 S7         30.2360   23.2226    3.0252 S.3       12 UNK        -0.2672 
      8 C8         29.4346   24.7124    2.3648 C.3       12 UNK         0.0333 
      9 C9         30.4231   25.5539    1.5737 C.ar      12 UNK        -0.0807 
     10 C10        31.1473   26.5746    2.1990 C.ar      12 UNK        -0.0894 
     11 C11        32.0646   27.3368    1.4690 C.ar      12 UNK        -0.0804 
     12 C12        32.2476   27.0774    0.1090 C.ar      12 UNK        -0.0824 
     13 C13        31.5090   26.0800   -0.5328 C.ar      12 UNK        -0.0762 
     14 C14        30.6011   25.3168    0.2067 C.ar      12 UNK        -0.0782 
     15 C15        31.7062   25.8191   -2.0202 C.3       12 UNK         0.0230 
     16 S16        30.4198   26.6077   -3.0447 S.3       12 UNK        -0.2608 
     17 C17        30.6907   28.3859   -2.7176 C.3       12 UNK        -0.0989 
     18 CA         29.4582   29.0759   -2.0732 C.3       5 UNK         0.0716 
     19 N          28.9647   28.3683   -0.8859 N.am      5 UNK        -0.4135 
     20 C          27.6945   28.3817   -0.4648 C.2       4 UNK         0.5031 
     21 O          26.7910   28.9999   -1.0336 O.2       4 UNK        -0.5229 
     22 CA         27.3908   27.6571    0.8524 C.3       4 UNK         0.0329 
     23 CB         27.0704   28.6762    1.9561 C.3       4 UNK        -0.2001 
     24 N          26.2738   26.7250    0.7142 N.am      4 UNK        -0.4303 
     25 C          26.3302   25.5736    0.0353 C.2       3 UNK         0.5044 
     26 O          27.3356   25.1597   -0.5443 O.2       3 UNK        -0.5152 
     27 CA         25.0464   24.7425   -0.0040 C.3       3 UNK         0.0319 
     28 CB         24.2824   24.9689   -1.3213 C.3       3 UNK        -0.2001 
     29 N          25.4025   23.3344    0.1434 N.am      3 UNK        -0.4354 
     30 C          24.5902   22.3729    0.5914 C.2       2 UNK         0.4964 
     31 O          23.4191   22.5667    0.9200 O.2       2 UNK        -0.5047 
     32 CA         25.1716   20.9540    0.7055 C.3       2 UNK         0.0288 
     33 CB         25.5121   20.3583   -0.6765 C.3       2 UNK        -0.2113 
     34 N          26.2948   20.8451    1.6470 N.am      2 UNK        -0.4145 
     35 C          27.5415   21.3343    1.5403 C.2       1 UNK         0.5006 
     36 O          27.9339   21.9993    0.5808 O.2       1 UNK        -0.5103 
     37 C          29.7195   30.5602   -1.7313 C.2       5 UNK         0.5055 
     38 O          30.8577   31.0254   -1.8171 O.2       5 UNK        -0.5220 
     39 N          28.6609   31.2608   -1.2988 N.am      6 UNK        -0.4450 
     40 CA         28.5679   32.6713   -0.8919 C.3       6 UNK         0.0367 
     41 CB         28.9325   33.6141   -2.0551 C.3       6 UNK        -0.1929 
     42 C          29.3459   33.0523    0.3834 C.2       6 UNK         0.5070 
     43 O          28.8060   33.7862    1.2110 O.2       6 UNK        -0.5237 
     44 N          30.5888   32.5744    0.5247 N.am      7 UNK        -0.4739 
     45 CA         31.5046   32.9260    1.6177 C.3       7 UNK         0.0276 
     46 CB         32.9409   32.5775    1.2009 C.3       7 UNK        -0.1927 
     47 C          31.1399   32.2950    2.9763 C.2       7 UNK         0.5013 
     48 O          31.5392   32.8362    4.0090 O.2       7 UNK        -0.5193 
     49 N          30.3747   31.1914    2.9449 N.am      8 UNK        -0.4253 
     50 CA         29.6954   30.5207    4.0631 C.3       8 UNK         0.0242 
     51 CB         28.3862   31.2751    4.3895 C.3       8 UNK        -0.2000 
     52 C          30.5863   30.2902    5.2991 C.2       8 UNK         0.4948 
     53 O          31.3990   29.3650    5.2947 O.2       8 UNK        -0.5275 
     54 N          30.4301   31.1427    6.3229 N.am      9 UNK        -0.4246 
     55 CA         31.1543   31.1157    7.5973 C.3       9 UNK         0.0261 
     56 CB         30.6385   32.2526    8.4941 C.3       9 UNK        -0.1959 
     57 C          32.6867   31.1851    7.4720 C.2       9 UNK         0.5033 
     58 O          33.3757   30.7080    8.3750 O.2       9 UNK        -0.5390 
     59 N          33.2000   31.7208    6.3532 N.am      10 UNK        -0.4215 
     60 CA         34.6258   31.7210    6.0080 C.3       10 UNK         0.0240 
     61 CB         34.8292   32.4942    4.6976 C.3       10 UNK        -0.1982 
     62 C          35.2367   30.3110    5.8844 C.2       10 UNK         0.4970 
     63 O          36.4366   30.1614    6.1189 O.2       10 UNK        -0.4916 
     64 N          34.4118   29.3133    5.5382 N.am      11 UNK        -0.4279 
     65 CA         34.7896   27.8930    5.4924 C.3       11 UNK         0.1003 
     66 C          34.6135   27.1593    6.8551 C.2       11 UNK         0.5709 
     67 N          34.1861   27.8154    7.9291 N.am      11 UNK        -0.7358 
     68 O          34.8912   25.9659    6.9489 O.2       11 UNK        -0.4999 
     69 C69        34.0710   27.1477    4.3365 C.3       12 UNK        -0.0954 
     70 S70        34.4832   27.8573    2.7058 S.3       12 UNK        -0.2268 
     71 C71        32.8630   28.4475    2.1315 C.3       12 UNK         0.0203 
     72 H72        26.8808   16.9534    3.6577 H         1 UNK         0.0888 
     73 H73        28.5074   16.8400    4.3351 H         1 UNK         0.0888 
     74 H74        27.3388   17.9647    5.0295 H         1 UNK         0.0888 
     75 H75        27.7443   20.0819    4.4294 H         1 UNK         0.3017 
     76 H76        29.4623   20.7302    2.2229 H         1 UNK         0.0873 
     77 H77        27.9112   22.9049    3.6787 H         1 UNK         0.0745 
     78 H78        29.0254   21.9557    4.6098 H         1 UNK         0.0745 
     79 H79        28.6014   24.4206    1.7253 H         1 UNK         0.0705 
     80 H80        29.0083   25.2925    3.1847 H         1 UNK         0.0705 
     81 H81        31.0041   26.7683    3.2534 H         1 UNK         0.1334 
     82 H82        32.9689   27.6584   -0.4496 H         1 UNK         0.1417 
     83 H83        30.0281   24.5387   -0.2815 H         1 UNK         0.1562 
     84 H84        31.6910   24.7439   -2.2051 H         1 UNK         0.0748 
     85 H85        32.6882   26.1669   -2.3450 H         1 UNK         0.0748 
     86 H86        30.9235   28.8647   -3.6706 H         1 UNK         0.0940 
     87 H87        31.5811   28.5199   -2.1048 H         1 UNK         0.0940 
     88 H88        28.6685   29.0666   -2.8281 H         1 UNK         0.0703 
     89 H89        29.6503   27.8259   -0.3787 H         1 UNK         0.3081 
     90 H90        28.2729   27.0963    1.1566 H         1 UNK         0.0719 
     91 H91        26.1251   29.1888    1.7730 H         1 UNK         0.0809 
     92 H92        27.0134   28.2004    2.9353 H         1 UNK         0.0809 
     93 H93        27.8433   29.4417    2.0061 H         1 UNK         0.0809 
     94 H94        25.3952   27.0101    1.1220 H         1 UNK         0.2990 
     95 H95        24.4128   25.0376    0.8355 H         1 UNK         0.0690 
     96 H96        23.3457   24.4115   -1.3404 H         1 UNK         0.0788 
     97 H97        24.8734   24.6606   -2.1848 H         1 UNK         0.0788 
     98 H98        24.0349   26.0230   -1.4535 H         1 UNK         0.0788 
     99 H99        26.3775   23.1064   -0.0419 H         1 UNK         0.2993 
    100 H100       24.3801   20.3331    1.1290 H         1 UNK         0.0949 
    101 H101       25.8477   19.3249   -0.5883 H         1 UNK         0.0767 
    102 H102       24.6354   20.3604   -1.3254 H         1 UNK         0.0767 
    103 H103       26.2931   20.9198   -1.1896 H         1 UNK         0.0767 
    104 H104       26.0857   20.3347    2.4933 H         1 UNK         0.3013 
    105 H105       27.7913   30.7388   -1.2272 H         1 UNK         0.3121 
    106 H106       27.5129   32.8338   -0.6644 H         1 UNK         0.0774 
    107 H107       28.7676   34.6560   -1.7770 H         1 UNK         0.0815 
    108 H108       29.9793   33.5200   -2.3455 H         1 UNK         0.0815 
    109 H109       28.3209   33.4138   -2.9347 H         1 UNK         0.0815 
    110 H110       30.9519   31.9974   -0.2315 H         1 UNK         0.2987 
    111 H111       31.4536   34.0089    1.7529 H         1 UNK         0.0949 
    112 H112       33.0913   31.5029    1.1132 H         1 UNK         0.0806 
    113 H113       33.1950   33.0287    0.2415 H         1 UNK         0.0806 
    114 H114       33.6588   32.9571    1.9269 H         1 UNK         0.0806 
    115 H115       30.1562   30.8339    2.0269 H         1 UNK         0.3010 
    116 H116       29.4278   29.5234    3.7124 H         1 UNK         0.0829 
    117 H117       27.7161   31.2908    3.5303 H         1 UNK         0.0813 
    118 H118       27.8440   30.7959    5.2062 H         1 UNK         0.0813 
    119 H119       28.5671   32.3136    4.6693 H         1 UNK         0.0813 
    120 H120       29.7619   31.8905    6.2058 H         1 UNK         0.3038 
    121 H121       30.9181   30.1648    8.0793 H         1 UNK         0.0769 
    122 H122       30.8150   33.2312    8.0458 H         1 UNK         0.0811 
    123 H123       31.1391   32.2433    9.4636 H         1 UNK         0.0811 
    124 H124       29.5694   32.1563    8.6843 H         1 UNK         0.0811 
    125 H125       32.5603   32.0896    5.6548 H         1 UNK         0.3204 
    126 H126       35.1571   32.2440    6.8058 H         1 UNK         0.0748 
    127 H127       34.4104   33.4993    4.7535 H         1 UNK         0.0771 
    128 H128       35.8897   32.5945    4.4627 H         1 UNK         0.0771 
    129 H129       34.3579   31.9760    3.8628 H         1 UNK         0.0771 
    130 H130       33.4254   29.5050    5.3959 H         1 UNK         0.2980 
    131 H131       35.8589   27.8322    5.2822 H         1 UNK         0.0545 
    132 H132       33.9747   28.8056    7.8957 H         1 UNK         0.3459 
    133 H133       34.0903   27.3154    8.7984 H         1 UNK         0.3459 
    134 H134       32.9919   27.1585    4.4932 H         1 UNK         0.0616 
    135 H135       34.3639   26.0967    4.3118 H         1 UNK         0.0616 
    136 H136       32.3068   28.8920    2.9547 H         1 UNK         0.0634 
    137 H137       33.0273   29.2483    1.4117 H         1 UNK         0.0634 
@<TRIPOS>BOND
     1    1    2 1    
     2    1   72 1    
     3    1   73 1    
     4    1   74 1    
     5    2    3 2    
     6    2    4 am   BACKBONE|DICT|INTERRES
     7    4    5 1    
     8    4   75 1    
     9    5    6 1    
    10    5   35 1    
    11    5   76 1    
    12    6    7 1    
    13    6   77 1    
    14    6   78 1    
    15    7    8 1    
    16    8    9 1    
    17    8   79 1    
    18    8   80 1    
    19    9   10 ar   
    20    9   14 ar   
    21   10   11 ar   
    22   10   81 1    
    23   11   12 ar   
    24   11   71 1    
    25   12   13 ar   
    26   12   82 1    
    27   13   14 ar   
    28   13   15 1    
    29   14   83 1    
    30   15   16 1    
    31   15   84 1    
    32   15   85 1    
    33   16   17 1    
    34   17   18 1    
    35   17   86 1    
    36   17   87 1    
    37   18   19 1    
    38   18   37 1    
    39   18   88 1    
    40   19   20 am   BACKBONE|DICT|INTERRES
    41   19   89 1    
    42   20   21 2    
    43   20   22 1    
    44   22   23 1    
    45   22   24 1    
    46   22   90 1    
    47   23   91 1    
    48   23   92 1    
    49   23   93 1    
    50   24   25 am   BACKBONE|DICT|INTERRES
    51   24   94 1    
    52   25   26 2    
    53   25   27 1    
    54   27   28 1    
    55   27   29 1    
    56   27   95 1    
    57   28   96 1    
    58   28   97 1    
    59   28   98 1    
    60   29   30 am   BACKBONE|DICT|INTERRES
    61   29   99 1    
    62   30   31 2    
    63   30   32 1    
    64   32   33 1    
    65   32   34 1    
    66   32  100 1    
    67   33  101 1    
    68   33  102 1    
    69   33  103 1    
    70   34   35 am   BACKBONE|DICT|INTERRES
    71   34  104 1    
    72   35   36 2    
    73   37   38 2    
    74   37   39 am   BACKBONE|DICT|INTERRES
    75   39   40 1    
    76   39  105 1    
    77   40   41 1    
    78   40   42 1    
    79   40  106 1    
    80   41  107 1    
    81   41  108 1    
    82   41  109 1    
    83   42   43 2    
    84   42   44 am   BACKBONE|DICT|INTERRES
    85   44   45 1    
    86   44  110 1    
    87   45   46 1    
    88   45   47 1    
    89   45  111 1    
    90   46  112 1    
    91   46  113 1    
    92   46  114 1    
    93   47   48 2    
    94   47   49 am   BACKBONE|DICT|INTERRES
    95   49   50 1    
    96   49  115 1    
    97   50   51 1    
    98   50   52 1    
    99   50  116 1    
   100   51  117 1    
   101   51  118 1    
   102   51  119 1    
   103   52   53 2    
   104   52   54 am   BACKBONE|DICT|INTERRES
   105   54   55 1    
   106   54  120 1    
   107   55   56 1    
   108   55   57 1    
   109   55  121 1    
   110   56  122 1    
   111   56  123 1    
   112   56  124 1    
   113   57   58 2    
   114   57   59 am   BACKBONE|DICT|INTERRES
   115   59   60 1    
   116   59  125 1    
   117   60   61 1    
   118   60   62 1    
   119   60  126 1    
   120   61  127 1    
   121   61  128 1    
   122   61  129 1    
   123   62   63 2    
   124   62   64 am   BACKBONE|DICT|INTERRES
   125   64   65 1    
   126   64  130 1    
   127   65   66 1    
   128   65   69 1    
   129   65  131 1    
   130   66   67 am   BACKBONE|DICT|INTERRES
   131   66   68 2    
   132   67  132 1    
   133   67  133 1    
   134   69   70 1    
   135   69  134 1    
   136   69  135 1    
   137   70   71 1    
   138   71  136 1    
   139   71  137 1    
@<TRIPOS>SUBSTRUCTURE
     1 UNK         1 GROUP             0       ****    0 ROOT    
