@<TRIPOS>MOLECULE
3R136
137   139    1
SMALL
USER_CHARGES


@<TRIPOS>ATOM
      1 CA         32.5018   23.8544   -4.8893 C.3       0 UNK        -0.1979 
      2 C          31.6030   24.5295   -3.8633 C.2       0 UNK         0.4864 
      3 O          31.0074   25.5655   -4.1622 O.2       0 UNK        -0.5359 
      4 N          31.5082   23.9538   -2.6574 N.am      1 UNK        -0.4318 
      5 CA         30.6463   24.4267   -1.5695 C.3       1 UNK         0.0824 
      6 C6         31.1346   23.8924   -0.1995 C.3       12 UNK        -0.0944 
      7 S7         30.6695   24.9926    1.1796 S.3       12 UNK        -0.2672 
      8 C8         30.1787   23.7890    2.4490 C.3       12 UNK         0.0333 
      9 C9         30.3306   24.3902    3.8361 C.ar      12 UNK        -0.0807 
     10 C10        31.5775   24.3734    4.4662 C.ar      12 UNK        -0.0894 
     11 C11        31.7432   24.9356    5.7354 C.ar      12 UNK        -0.0804 
     12 C12        30.6412   25.5174    6.3711 C.ar      12 UNK        -0.0824 
     13 C13        29.3816   25.5320    5.7607 C.ar      12 UNK        -0.0762 
     14 C14        29.2340   24.9562    4.4915 C.ar      12 UNK        -0.0782 
     15 C15        28.1984   26.1247    6.5278 C.3       12 UNK         0.0230 
     16 S16        26.8682   26.8274    5.4924 S.3       12 UNK        -0.2608 
     17 C17        27.7014   28.2590    4.7294 C.3       12 UNK        -0.0989 
     18 CA         27.8555   28.1049    3.1939 C.3       5 UNK         0.0716 
     19 N          26.5790   27.9135    2.4832 N.am      5 UNK        -0.4135 
     20 C          25.5044   28.7205    2.4665 C.2       4 UNK         0.5031 
     21 O          25.4820   29.8303    3.0000 O.2       4 UNK        -0.5229 
     22 CA         24.2554   28.2540    1.6923 C.3       4 UNK         0.0329 
     23 CB         24.1392   29.0207    0.3642 C.3       4 UNK        -0.2001 
     24 N          24.2406   26.8183    1.4118 N.am      4 UNK        -0.4303 
     25 C          24.0797   25.8502    2.3251 C.2       3 UNK         0.5044 
     26 O          23.7701   26.0626    3.4973 O.2       3 UNK        -0.5152 
     27 CA         24.3274   24.3993    1.8617 C.3       3 UNK         0.0319 
     28 CB         22.9975   23.6352    1.7527 C.3       3 UNK        -0.2001 
     29 N          25.0571   24.2717    0.5911 N.am      3 UNK        -0.4354 
     30 C          26.2987   24.7181    0.3557 C.2       2 UNK         0.4964 
     31 O          26.9802   25.3291    1.1843 O.2       2 UNK        -0.5047 
     32 CA         26.8335   24.5112   -1.0645 C.3       2 UNK         0.0288 
     33 CB         26.1985   25.5159   -2.0439 C.3       2 UNK        -0.2113 
     34 N          28.2775   24.7038   -1.0456 N.am      2 UNK        -0.4145 
     35 C          29.1625   24.0799   -1.8274 C.2       1 UNK         0.5006 
     36 O          28.8499   23.2530   -2.6897 O.2       1 UNK        -0.5103 
     37 C          28.7379   29.2293    2.6137 C.2       5 UNK         0.5055 
     38 O          29.9603   29.0711    2.5619 O.2       5 UNK        -0.5220 
     39 N          28.1219   30.3276    2.1556 N.am      6 UNK        -0.4450 
     40 CA         28.7543   31.4938    1.5292 C.3       6 UNK         0.0367 
     41 CB         27.6683   32.5122    1.1499 C.3       6 UNK        -0.1929 
     42 C          29.6249   31.1583    0.3050 C.2       6 UNK         0.5070 
     43 O          30.5966   31.8679    0.0481 O.2       6 UNK        -0.5237 
     44 N          29.3083   30.0478   -0.3770 N.am      7 UNK        -0.4739 
     45 CA         30.0742   29.4550   -1.4781 C.3       7 UNK         0.0276 
     46 CB         29.3388   28.1963   -1.9658 C.3       7 UNK        -0.1927 
     47 C          31.5415   29.1233   -1.1341 C.2       7 UNK         0.5013 
     48 O          32.3804   29.1446   -2.0352 O.2       7 UNK        -0.5193 
     49 N          31.8300   28.8585    0.1481 N.am      8 UNK        -0.4253 
     50 CA         33.1832   28.6931    0.6859 C.3       8 UNK         0.0242 
     51 CB         33.4006   27.2219    1.0830 C.3       8 UNK        -0.2000 
     52 C          33.4280   29.6428    1.8715 C.2       8 UNK         0.4948 
     53 O          34.2789   29.3445    2.7109 O.2       8 UNK        -0.5275 
     54 N          32.6629   30.7458    1.9535 N.am      9 UNK        -0.4246 
     55 CA         32.6680   31.7550    3.0251 C.3       9 UNK         0.0261 
     56 CB         33.9309   32.6347    2.9150 C.3       9 UNK        -0.1959 
     57 C          32.4858   31.1610    4.4399 C.2       9 UNK         0.5033 
     58 O          33.0950   31.6503    5.3939 O.2       9 UNK        -0.5390 
     59 N          31.7013   30.0753    4.5378 N.am      10 UNK        -0.4215 
     60 CA         31.4971   29.2231    5.7169 C.3       10 UNK         0.0240 
     61 CB         30.6278   29.9515    6.7631 C.3       10 UNK        -0.1982 
     62 C          32.8032   28.6577    6.3152 C.2       10 UNK         0.4970 
     63 O          32.8574   28.3993    7.5188 O.2       10 UNK        -0.4916 
     64 N          33.8275   28.4900    5.4670 N.am      11 UNK        -0.4279 
     65 CA         35.1988   28.0930    5.8157 C.3       11 UNK         0.1003 
     66 C          35.9889   29.1696    6.6215 C.2       11 UNK         0.5709 
     67 N          35.5447   30.4212    6.6802 N.am      11 UNK        -0.7358 
     68 O          37.0440   28.8779    7.1804 O.2       11 UNK        -0.4999 
     69 C69        35.2979   26.6699    6.4378 C.3       12 UNK        -0.0954 
     70 S70        34.4936   25.3906    5.4099 S.3       12 UNK        -0.2268 
     71 C71        33.0888   24.8633    6.4522 C.3       12 UNK         0.0203 
     72 H72        33.2853   24.5402   -5.2105 H         1 UNK         0.0888 
     73 H73        32.9779   22.9595   -4.4890 H         1 UNK         0.0888 
     74 H74        31.9203   23.5663   -5.7646 H         1 UNK         0.0888 
     75 H75        31.9936   23.0850   -2.4861 H         1 UNK         0.3017 
     76 H76        30.7294   25.5159   -1.5592 H         1 UNK         0.0873 
     77 H77        32.2244   23.8338   -0.1848 H         1 UNK         0.0745 
     78 H78        30.7800   22.8747   -0.0226 H         1 UNK         0.0745 
     79 H79        30.7986   22.8941    2.3746 H         1 UNK         0.0705 
     80 H80        29.1495   23.4734    2.2698 H         1 UNK         0.0705 
     81 H81        32.4218   23.9199    3.9650 H         1 UNK         0.1334 
     82 H82        30.7600   25.9420    7.3591 H         1 UNK         0.1417 
     83 H83        28.2675   24.9447    4.0061 H         1 UNK         0.1562 
     84 H84        28.5438   26.8999    7.2140 H         1 UNK         0.0748 
     85 H85        27.7677   25.3374    7.1476 H         1 UNK         0.0748 
     86 H86        28.6757   28.3839    5.1989 H         1 UNK         0.0940 
     87 H87        27.1360   29.1586    4.9779 H         1 UNK         0.0940 
     88 H88        28.4141   27.1866    3.0094 H         1 UNK         0.0703 
     89 H89        26.5176   27.0272    1.9899 H         1 UNK         0.3081 
     90 H90        23.3839   28.4910    2.3062 H         1 UNK         0.0719 
     91 H91        24.9826   28.8170   -0.2971 H         1 UNK         0.0809 
     92 H92        23.2241   28.7584   -0.1671 H         1 UNK         0.0809 
     93 H93        24.1127   30.0980    0.5354 H         1 UNK         0.0809 
     94 H94        24.4647   26.5388    0.4686 H         1 UNK         0.2990 
     95 H95        24.9339   23.9217    2.6342 H         1 UNK         0.0690 
     96 H96        23.1612   22.5815    1.5255 H         1 UNK         0.0788 
     97 H97        22.3551   24.0522    0.9760 H         1 UNK         0.0788 
     98 H98        22.4431   23.6781    2.6915 H         1 UNK         0.0788 
     99 H99        24.5657   23.8013   -0.1561 H         1 UNK         0.2993 
    100 H100       26.6009   23.4895   -1.3736 H         1 UNK         0.0949 
    101 H101       26.5882   25.3820   -3.0534 H         1 UNK         0.0767 
    102 H102       25.1167   25.3888   -2.0986 H         1 UNK         0.0767 
    103 H103       26.3947   26.5473   -1.7471 H         1 UNK         0.0767 
    104 H104       28.6109   25.2658   -0.2701 H         1 UNK         0.3013 
    105 H105       27.1159   30.3742    2.3035 H         1 UNK         0.3121 
    106 H106       29.4056   31.9488    2.2776 H         1 UNK         0.0774 
    107 H107       28.1081   33.4053    0.7035 H         1 UNK         0.0815 
    108 H108       26.9627   32.0993    0.4276 H         1 UNK         0.0815 
    109 H109       27.1028   32.8342    2.0246 H         1 UNK         0.0815 
    110 H110       28.4893   29.5399   -0.0777 H         1 UNK         0.2987 
    111 H111       30.0929   30.1827   -2.2922 H         1 UNK         0.0949 
    112 H112       29.8805   27.7170   -2.7827 H         1 UNK         0.0806 
    113 H113       29.2311   27.4620   -1.1675 H         1 UNK         0.0806 
    114 H114       28.3429   28.4356   -2.3390 H         1 UNK         0.0806 
    115 H115       31.0785   28.8578    0.8317 H         1 UNK         0.3010 
    116 H116       33.9270   28.9552   -0.0692 H         1 UNK         0.0829 
    117 H117       33.1890   26.5498    0.2514 H         1 UNK         0.0813 
    118 H118       34.4329   27.0438    1.3867 H         1 UNK         0.0813 
    119 H119       32.7631   26.9370    1.9210 H         1 UNK         0.0813 
    120 H120       32.0092   30.9268    1.1982 H         1 UNK         0.3038 
    121 H121       31.8024   32.3950    2.8507 H         1 UNK         0.0769 
    122 H122       33.8958   33.4640    3.6225 H         1 UNK         0.0811 
    123 H123       34.0286   33.0656    1.9186 H         1 UNK         0.0811 
    124 H124       34.8372   32.0653    3.1252 H         1 UNK         0.0811 
    125 H125       31.2351   29.7477    3.6925 H         1 UNK         0.3204 
    126 H126       30.9457   28.3524    5.3623 H         1 UNK         0.0748 
    127 H127       30.3322   29.2757    7.5666 H         1 UNK         0.0771 
    128 H128       31.1635   30.7856    7.2178 H         1 UNK         0.0771 
    129 H129       29.7139   30.3450    6.3187 H         1 UNK         0.0771 
    130 H130       33.7137   28.7667    4.4967 H         1 UNK         0.2980 
    131 H131       35.7185   28.0496    4.8581 H         1 UNK         0.0545 
    132 H132       36.0748   31.1048    7.1960 H         1 UNK         0.3459 
    133 H133       34.6835   30.6962    6.2195 H         1 UNK         0.3459 
    134 H134       36.3451   26.3796    6.5366 H         1 UNK         0.0616 
    135 H135       34.8967   26.6624    7.4514 H         1 UNK         0.0616 
    136 H136       33.0545   25.4545    7.3675 H         1 UNK         0.0634 
    137 H137       33.2606   23.8328    6.7651 H         1 UNK         0.0634 
@<TRIPOS>BOND
     1    1    2 1    
     2    1   72 1    
     3    1   73 1    
     4    1   74 1    
     5    2    3 2    
     6    2    4 am   BACKBONE|DICT|INTERRES
     7    4    5 1    
     8    4   75 1    
     9    5    6 1    
    10    5   35 1    
    11    5   76 1    
    12    6    7 1    
    13    6   77 1    
    14    6   78 1    
    15    7    8 1    
    16    8    9 1    
    17    8   79 1    
    18    8   80 1    
    19    9   10 ar   
    20    9   14 ar   
    21   10   11 ar   
    22   10   81 1    
    23   11   12 ar   
    24   11   71 1    
    25   12   13 ar   
    26   12   82 1    
    27   13   14 ar   
    28   13   15 1    
    29   14   83 1    
    30   15   16 1    
    31   15   84 1    
    32   15   85 1    
    33   16   17 1    
    34   17   18 1    
    35   17   86 1    
    36   17   87 1    
    37   18   19 1    
    38   18   37 1    
    39   18   88 1    
    40   19   20 am   BACKBONE|DICT|INTERRES
    41   19   89 1    
    42   20   21 2    
    43   20   22 1    
    44   22   23 1    
    45   22   24 1    
    46   22   90 1    
    47   23   91 1    
    48   23   92 1    
    49   23   93 1    
    50   24   25 am   BACKBONE|DICT|INTERRES
    51   24   94 1    
    52   25   26 2    
    53   25   27 1    
    54   27   28 1    
    55   27   29 1    
    56   27   95 1    
    57   28   96 1    
    58   28   97 1    
    59   28   98 1    
    60   29   30 am   BACKBONE|DICT|INTERRES
    61   29   99 1    
    62   30   31 2    
    63   30   32 1    
    64   32   33 1    
    65   32   34 1    
    66   32  100 1    
    67   33  101 1    
    68   33  102 1    
    69   33  103 1    
    70   34   35 am   BACKBONE|DICT|INTERRES
    71   34  104 1    
    72   35   36 2    
    73   37   38 2    
    74   37   39 am   BACKBONE|DICT|INTERRES
    75   39   40 1    
    76   39  105 1    
    77   40   41 1    
    78   40   42 1    
    79   40  106 1    
    80   41  107 1    
    81   41  108 1    
    82   41  109 1    
    83   42   43 2    
    84   42   44 am   BACKBONE|DICT|INTERRES
    85   44   45 1    
    86   44  110 1    
    87   45   46 1    
    88   45   47 1    
    89   45  111 1    
    90   46  112 1    
    91   46  113 1    
    92   46  114 1    
    93   47   48 2    
    94   47   49 am   BACKBONE|DICT|INTERRES
    95   49   50 1    
    96   49  115 1    
    97   50   51 1    
    98   50   52 1    
    99   50  116 1    
   100   51  117 1    
   101   51  118 1    
   102   51  119 1    
   103   52   53 2    
   104   52   54 am   BACKBONE|DICT|INTERRES
   105   54   55 1    
   106   54  120 1    
   107   55   56 1    
   108   55   57 1    
   109   55  121 1    
   110   56  122 1    
   111   56  123 1    
   112   56  124 1    
   113   57   58 2    
   114   57   59 am   BACKBONE|DICT|INTERRES
   115   59   60 1    
   116   59  125 1    
   117   60   61 1    
   118   60   62 1    
   119   60  126 1    
   120   61  127 1    
   121   61  128 1    
   122   61  129 1    
   123   62   63 2    
   124   62   64 am   BACKBONE|DICT|INTERRES
   125   64   65 1    
   126   64  130 1    
   127   65   66 1    
   128   65   69 1    
   129   65  131 1    
   130   66   67 am   BACKBONE|DICT|INTERRES
   131   66   68 2    
   132   67  132 1    
   133   67  133 1    
   134   69   70 1    
   135   69  134 1    
   136   69  135 1    
   137   70   71 1    
   138   71  136 1    
   139   71  137 1    
@<TRIPOS>SUBSTRUCTURE
     1 UNK         1 GROUP             0       ****    0 ROOT    
