@<TRIPOS>MOLECULE
3R136
137   139    1
SMALL
USER_CHARGES


@<TRIPOS>ATOM
      1 CA         27.0550   18.0937    1.1050 C.3       0 UNK        -0.1979 
      2 C          27.4491   19.2712    0.2255 C.2       0 UNK         0.4864 
      3 O          27.5439   19.1195   -0.9936 O.2       0 UNK        -0.5359 
      4 N          27.6857   20.4414    0.8330 N.am      1 UNK        -0.4318 
      5 CA         28.0118   21.6901    0.1417 C.3       1 UNK         0.0824 
      6 C6         28.6100   22.7275    1.1238 C.3       12 UNK        -0.0944 
      7 S7         29.3412   24.1759    0.2803 S.3       12 UNK        -0.2672 
      8 C8         31.1276   23.9037    0.5465 C.3       12 UNK         0.0333 
      9 C9         31.6557   24.5987    1.7989 C.ar      12 UNK        -0.0807 
     10 C10        32.7649   25.4480    1.7132 C.ar      12 UNK        -0.0894 
     11 C11        33.2636   26.0847    2.8545 C.ar      12 UNK        -0.0804 
     12 C12        32.6278   25.8948    4.0842 C.ar      12 UNK        -0.0824 
     13 C13        31.5116   25.0621    4.1826 C.ar      12 UNK        -0.0762 
     14 C14        31.0546   24.3910    3.0449 C.ar      12 UNK        -0.0782 
     15 C15        30.7890   24.9029    5.5132 C.3       12 UNK         0.0230 
     16 S16        29.0050   25.2586    5.3782 S.3       12 UNK        -0.2608 
     17 C17        28.9908   26.9989    4.8136 C.3       12 UNK        -0.0989 
     18 CA         28.8273   27.1680    3.2735 C.3       5 UNK         0.0716 
     19 N          27.7439   26.3707    2.6760 N.am      5 UNK        -0.4135 
     20 C          26.4469   26.3498    3.0175 C.2       4 UNK         0.5031 
     21 O          25.9638   27.0282    3.9250 O.2       4 UNK        -0.5229 
     22 CA         25.5347   25.4616    2.1441 C.3       4 UNK         0.0329 
     23 CB         24.0333   25.7217    2.3879 C.3       4 UNK        -0.2001 
     24 N          25.8432   25.5590    0.7095 N.am      4 UNK        -0.4303 
     25 C          25.8896   26.6805   -0.0307 C.2       3 UNK         0.5044 
     26 O          25.6447   27.7991    0.4184 O.2       3 UNK        -0.5152 
     27 CA         26.3270   26.5636   -1.5025 C.3       3 UNK         0.0319 
     28 CB         27.6718   27.2793   -1.7139 C.3       3 UNK        -0.2001 
     29 N          26.4515   25.1790   -1.9605 N.am      3 UNK        -0.4354 
     30 C          25.4345   24.4270   -2.4047 C.2       2 UNK         0.4964 
     31 O          24.2833   24.8405   -2.5435 O.2       2 UNK        -0.5047 
     32 CA         25.7519   22.9542   -2.7230 C.3       2 UNK         0.0288 
     33 CB         26.1130   22.7890   -4.2082 C.3       2 UNK        -0.2113 
     34 N          26.8283   22.3961   -1.8955 N.am      2 UNK        -0.4145 
     35 C          26.7576   22.2362   -0.5662 C.2       1 UNK         0.5006 
     36 O          25.7708   22.5385    0.1089 O.2       1 UNK        -0.5103 
     37 C          28.7922   28.6648    2.8877 C.2       5 UNK         0.5055 
     38 O          29.8161   29.3361    3.0288 O.2       5 UNK        -0.5220 
     39 N          27.6614   29.1741    2.3747 N.am      6 UNK        -0.4450 
     40 CA         27.4088   30.5920    2.0856 C.3       6 UNK         0.0367 
     41 CB         25.8997   30.8076    1.8812 C.3       6 UNK        -0.1929 
     42 C          28.2155   31.1798    0.9112 C.2       6 UNK         0.5070 
     43 O          28.0739   32.3694    0.6266 O.2       6 UNK        -0.5237 
     44 N          29.0681   30.3673    0.2708 N.am      7 UNK        -0.4739 
     45 CA         30.0669   30.7957   -0.7122 C.3       7 UNK         0.0276 
     46 CB         30.7518   29.5567   -1.3125 C.3       7 UNK        -0.1927 
     47 C          31.1211   31.7554   -0.1265 C.2       7 UNK         0.5013 
     48 O          31.6498   32.5845   -0.8684 O.2       7 UNK        -0.5193 
     49 N          31.3911   31.6399    1.1821 N.am      8 UNK        -0.4253 
     50 CA         32.2806   32.5345    1.9271 C.3       8 UNK         0.0242 
     51 CB         33.7570   32.2285    1.6110 C.3       8 UNK        -0.2000 
     52 C          32.0241   32.5373    3.4424 C.2       8 UNK         0.4948 
     53 O          32.3926   33.5192    4.0885 O.2       8 UNK        -0.5275 
     54 N          31.4217   31.4723    3.9996 N.am      9 UNK        -0.4246 
     55 CA         31.0382   31.2588    5.4065 C.3       9 UNK         0.0261 
     56 CB         29.9919   32.2917    5.8675 C.3       9 UNK        -0.1959 
     57 C          32.2084   31.1640    6.4037 C.2       9 UNK         0.5033 
     58 O          32.2260   30.2482    7.2261 O.2       9 UNK        -0.5390 
     59 N          33.1640   32.0943    6.3130 N.am      10 UNK        -0.4215 
     60 CA         34.3834   32.1550    7.1227 C.3       10 UNK         0.0240 
     61 CB         34.8975   33.6048    7.1257 C.3       10 UNK        -0.1982 
     62 C          35.4867   31.1913    6.6439 C.2       10 UNK         0.4970 
     63 O          36.4882   31.0383    7.3449 O.2       10 UNK        -0.4916 
     64 N          35.3081   30.5874    5.4620 N.am      11 UNK        -0.4279 
     65 CA         36.2182   29.6089    4.8541 C.3       11 UNK         0.1003 
     66 C          36.3765   28.2951    5.6739 C.2       11 UNK         0.5709 
     67 N          37.4838   27.5874    5.4937 N.am      11 UNK        -0.7358 
     68 O          35.5010   27.8934    6.4383 O.2       11 UNK        -0.4999 
     69 C69        35.8372   29.3406    3.3729 C.3       12 UNK        -0.0954 
     70 S70        34.1416   28.6963    3.1420 S.3       12 UNK        -0.2268 
     71 C71        34.5083   26.9532    2.7773 C.3       12 UNK         0.0203 
     72 H72        27.0202   18.3658    2.1598 H         1 UNK         0.0888 
     73 H73        26.0711   17.7240    0.8177 H         1 UNK         0.0888 
     74 H74        27.7721   17.2816    0.9881 H         1 UNK         0.0888 
     75 H75        27.5607   20.5124    1.8327 H         1 UNK         0.3017 
     76 H76        28.7722   21.4612   -0.6088 H         1 UNK         0.0873 
     77 H77        27.8605   23.0761    1.8369 H         1 UNK         0.0745 
     78 H78        29.3795   22.2388    1.7219 H         1 UNK         0.0745 
     79 H79        31.3474   22.8366    0.5984 H         1 UNK         0.0705 
     80 H80        31.6509   24.2748   -0.3359 H         1 UNK         0.0705 
     81 H81        33.2510   25.6032    0.7596 H         1 UNK         0.1334 
     82 H82        33.0043   26.4043    4.9616 H         1 UNK         0.1417 
     83 H83        30.1972   23.7422    3.1348 H         1 UNK         0.1562 
     84 H84        31.2217   25.5532    6.2752 H         1 UNK         0.0748 
     85 H85        30.9205   23.8798    5.8676 H         1 UNK         0.0748 
     86 H86        29.9086   27.4853    5.1508 H         1 UNK         0.0940 
     87 H87        28.1798   27.5066    5.3387 H         1 UNK         0.0940 
     88 H88        29.7365   26.7908    2.8066 H         1 UNK         0.0703 
     89 H89        28.0291   25.7885    1.9005 H         1 UNK         0.3081 
     90 H90        25.7424   24.4310    2.4357 H         1 UNK         0.0719 
     91 H91        23.7573   26.7499    2.1512 H         1 UNK         0.0809 
     92 H92        23.4142   25.0601    1.7820 H         1 UNK         0.0809 
     93 H93        23.7696   25.5455    3.4314 H         1 UNK         0.0809 
     94 H94        26.0200   24.6750    0.2479 H         1 UNK         0.2990 
     95 H95        25.5736   27.0739   -2.1064 H         1 UNK         0.0690 
     96 H96        27.9819   27.2416   -2.7582 H         1 UNK         0.0788 
     97 H97        28.4665   26.8389   -1.1106 H         1 UNK         0.0788 
     98 H98        27.5988   28.3327   -1.4392 H         1 UNK         0.0788 
     99 H99        27.3666   24.7574   -1.8864 H         1 UNK         0.2993 
    100 H100       24.8460   22.3771   -2.5235 H         1 UNK         0.0949 
    101 H101       25.3175   23.1737   -4.8481 H         1 UNK         0.0767 
    102 H102       27.0268   23.3266   -4.4651 H         1 UNK         0.0767 
    103 H103       26.2552   21.7396   -4.4677 H         1 UNK         0.0767 
    104 H104       27.6689   22.1105   -2.3776 H         1 UNK         0.3013 
    105 H105       26.8776   28.5500    2.2262 H         1 UNK         0.3121 
    106 H106       27.7060   31.1555    2.9726 H         1 UNK         0.0774 
    107 H107       25.5470   30.3424    0.9607 H         1 UNK         0.0815 
    108 H108       25.6623   31.8702    1.8157 H         1 UNK         0.0815 
    109 H109       25.3207   30.3988    2.7094 H         1 UNK         0.0815 
    110 H110       29.1149   29.4078    0.5798 H         1 UNK         0.2987 
    111 H111       29.5466   31.3284   -1.5112 H         1 UNK         0.0949 
    112 H112       31.2409   28.9527   -0.5469 H         1 UNK         0.0806 
    113 H113       30.0396   28.9229   -1.8392 H         1 UNK         0.0806 
    114 H114       31.5159   29.8458   -2.0356 H         1 UNK         0.0806 
    115 H115       30.8787   30.9437    1.7069 H         1 UNK         0.3010 
    116 H116       32.0732   33.5556    1.5988 H         1 UNK         0.0829 
    117 H117       34.0104   32.5162    0.5908 H         1 UNK         0.0813 
    118 H118       34.4313   32.7737    2.2732 H         1 UNK         0.0813 
    119 H119       33.9748   31.1681    1.7147 H         1 UNK         0.0813 
    120 H120       31.1676   30.6841    3.4130 H         1 UNK         0.3038 
    121 H121       30.5502   30.2830    5.4249 H         1 UNK         0.0769 
    122 H122       30.3923   33.3058    5.8775 H         1 UNK         0.0811 
    123 H123       29.6466   32.0704    6.8782 H         1 UNK         0.0811 
    124 H124       29.1169   32.2829    5.2174 H         1 UNK         0.0811 
    125 H125       33.0427   32.8041    5.5899 H         1 UNK         0.3204 
    126 H126       34.1343   31.8776    8.1491 H         1 UNK         0.0748 
    127 H127       35.7879   33.7053    7.7480 H         1 UNK         0.0771 
    128 H128       35.1601   33.9411    6.1217 H         1 UNK         0.0771 
    129 H129       34.1482   34.2899    7.5232 H         1 UNK         0.0771 
    130 H130       34.4388   30.7360    4.9742 H         1 UNK         0.2980 
    131 H131       37.2016   30.0831    4.8485 H         1 UNK         0.0545 
    132 H132       37.6022   26.7275    6.0059 H         1 UNK         0.3459 
    133 H133       38.2078   27.8986    4.8650 H         1 UNK         0.3459 
    134 H134       35.9173   30.2708    2.8094 H         1 UNK         0.0616 
    135 H135       36.5566   28.6646    2.9074 H         1 UNK         0.0616 
    136 H136       34.9721   26.8868    1.7919 H         1 UNK         0.0634 
    137 H137       35.2405   26.5748    3.4916 H         1 UNK         0.0634 
@<TRIPOS>BOND
     1    1    2 1    
     2    1   72 1    
     3    1   73 1    
     4    1   74 1    
     5    2    3 2    
     6    2    4 am   BACKBONE|DICT|INTERRES
     7    4    5 1    
     8    4   75 1    
     9    5    6 1    
    10    5   35 1    
    11    5   76 1    
    12    6    7 1    
    13    6   77 1    
    14    6   78 1    
    15    7    8 1    
    16    8    9 1    
    17    8   79 1    
    18    8   80 1    
    19    9   10 ar   
    20    9   14 ar   
    21   10   11 ar   
    22   10   81 1    
    23   11   12 ar   
    24   11   71 1    
    25   12   13 ar   
    26   12   82 1    
    27   13   14 ar   
    28   13   15 1    
    29   14   83 1    
    30   15   16 1    
    31   15   84 1    
    32   15   85 1    
    33   16   17 1    
    34   17   18 1    
    35   17   86 1    
    36   17   87 1    
    37   18   19 1    
    38   18   37 1    
    39   18   88 1    
    40   19   20 am   BACKBONE|DICT|INTERRES
    41   19   89 1    
    42   20   21 2    
    43   20   22 1    
    44   22   23 1    
    45   22   24 1    
    46   22   90 1    
    47   23   91 1    
    48   23   92 1    
    49   23   93 1    
    50   24   25 am   BACKBONE|DICT|INTERRES
    51   24   94 1    
    52   25   26 2    
    53   25   27 1    
    54   27   28 1    
    55   27   29 1    
    56   27   95 1    
    57   28   96 1    
    58   28   97 1    
    59   28   98 1    
    60   29   30 am   BACKBONE|DICT|INTERRES
    61   29   99 1    
    62   30   31 2    
    63   30   32 1    
    64   32   33 1    
    65   32   34 1    
    66   32  100 1    
    67   33  101 1    
    68   33  102 1    
    69   33  103 1    
    70   34   35 am   BACKBONE|DICT|INTERRES
    71   34  104 1    
    72   35   36 2    
    73   37   38 2    
    74   37   39 am   BACKBONE|DICT|INTERRES
    75   39   40 1    
    76   39  105 1    
    77   40   41 1    
    78   40   42 1    
    79   40  106 1    
    80   41  107 1    
    81   41  108 1    
    82   41  109 1    
    83   42   43 2    
    84   42   44 am   BACKBONE|DICT|INTERRES
    85   44   45 1    
    86   44  110 1    
    87   45   46 1    
    88   45   47 1    
    89   45  111 1    
    90   46  112 1    
    91   46  113 1    
    92   46  114 1    
    93   47   48 2    
    94   47   49 am   BACKBONE|DICT|INTERRES
    95   49   50 1    
    96   49  115 1    
    97   50   51 1    
    98   50   52 1    
    99   50  116 1    
   100   51  117 1    
   101   51  118 1    
   102   51  119 1    
   103   52   53 2    
   104   52   54 am   BACKBONE|DICT|INTERRES
   105   54   55 1    
   106   54  120 1    
   107   55   56 1    
   108   55   57 1    
   109   55  121 1    
   110   56  122 1    
   111   56  123 1    
   112   56  124 1    
   113   57   58 2    
   114   57   59 am   BACKBONE|DICT|INTERRES
   115   59   60 1    
   116   59  125 1    
   117   60   61 1    
   118   60   62 1    
   119   60  126 1    
   120   61  127 1    
   121   61  128 1    
   122   61  129 1    
   123   62   63 2    
   124   62   64 am   BACKBONE|DICT|INTERRES
   125   64   65 1    
   126   64  130 1    
   127   65   66 1    
   128   65   69 1    
   129   65  131 1    
   130   66   67 am   BACKBONE|DICT|INTERRES
   131   66   68 2    
   132   67  132 1    
   133   67  133 1    
   134   69   70 1    
   135   69  134 1    
   136   69  135 1    
   137   70   71 1    
   138   71  136 1    
   139   71  137 1    
@<TRIPOS>SUBSTRUCTURE
     1 UNK         1 GROUP             0       ****    0 ROOT    
