@<TRIPOS>MOLECULE
3R136
137   139    1
SMALL
USER_CHARGES


@<TRIPOS>ATOM
      1 CA         30.3857   20.4766   -3.9613 C.3       0 UNK        -0.1979 
      2 C          30.0134   21.7045   -3.1442 C.2       0 UNK         0.4864 
      3 O          29.9321   22.8055   -3.6927 O.2       0 UNK        -0.5359 
      4 N          29.7771   21.5291   -1.8373 N.am      1 UNK        -0.4318 
      5 CA         29.4175   22.5871   -0.8849 C.3       1 UNK         0.0824 
      6 C6         29.7787   22.1963    0.5715 C.3       12 UNK        -0.0944 
      7 S7         31.5759   21.9981    0.7861 S.3       12 UNK        -0.2672 
      8 C8         31.6801   21.6417    2.5671 C.3       12 UNK         0.0333 
      9 C9         31.5100   22.8887    3.4258 C.ar      12 UNK        -0.0807 
     10 C10        32.4982   23.8771    3.4264 C.ar      12 UNK        -0.0894 
     11 C11        32.3938   24.9877    4.2689 C.ar      12 UNK        -0.0804 
     12 C12        31.2828   25.1153    5.1082 C.ar      12 UNK        -0.0824 
     13 C13        30.2856   24.1344    5.1158 C.ar      12 UNK        -0.0762 
     14 C14        30.4023   23.0270    4.2679 C.ar      12 UNK        -0.0782 
     15 C15        29.1091   24.2308    6.0768 C.3       12 UNK         0.0230 
     16 S16        27.5682   24.6482    5.2071 S.3       12 UNK        -0.2608 
     17 C17        27.3503   26.4155    5.6180 C.3       12 UNK        -0.0989 
     18 CA         28.2593   27.3952    4.8278 C.3       5 UNK         0.0716 
     19 N          28.3942   27.0048    3.4235 N.am      5 UNK        -0.4135 
     20 C          29.0871   27.6401    2.4712 C.2       4 UNK         0.5031 
     21 O          29.7420   28.6650    2.6554 O.2       4 UNK        -0.5229 
     22 CA         28.9523   27.0842    1.0459 C.3       4 UNK         0.0329 
     23 CB         30.0849   26.0852    0.7653 C.3       4 UNK        -0.2001 
     24 N          27.6498   26.4629    0.7558 N.am      4 UNK        -0.4303 
     25 C          26.4425   27.0306    0.9245 C.2       3 UNK         0.5044 
     26 O          26.2804   28.1382    1.4414 O.2       3 UNK        -0.5152 
     27 CA         25.2080   26.2159    0.4889 C.3       3 UNK         0.0319 
     28 CB         24.0427   27.1185    0.0304 C.3       3 UNK        -0.2001 
     29 N          25.5022   25.1770   -0.5077 N.am      3 UNK        -0.4354 
     30 C          25.9367   25.3441   -1.7656 C.2       2 UNK         0.4964 
     31 O          26.1417   26.4400   -2.2895 O.2       2 UNK        -0.5047 
     32 CA         26.2489   24.0512   -2.5416 C.3       2 UNK         0.0288 
     33 CB         26.1720   24.2511   -4.0664 C.3       2 UNK        -0.2113 
     34 N          27.5778   23.5411   -2.1993 N.am      2 UNK        -0.4145 
     35 C          27.9336   22.9873   -1.0328 C.2       1 UNK         0.5006 
     36 O          27.1421   22.7925   -0.1077 O.2       1 UNK        -0.5103 
     37 C          27.7483   28.8417    5.0217 C.2       5 UNK         0.5055 
     38 O          28.0890   29.4637    6.0282 O.2       5 UNK        -0.5220 
     39 N          26.9420   29.3380    4.0715 N.am      6 UNK        -0.4450 
     40 CA         26.4184   30.7028    4.0413 C.3       6 UNK         0.0367 
     41 CB         24.8818   30.6525    4.0152 C.3       6 UNK        -0.1929 
     42 C          26.9454   31.4811    2.8264 C.2       6 UNK         0.5070 
     43 O          27.2267   32.6721    2.9578 O.2       6 UNK        -0.5237 
     44 N          27.0549   30.8166    1.6658 N.am      7 UNK        -0.4739 
     45 CA         27.4476   31.4277    0.3926 C.3       7 UNK         0.0276 
     46 CB         27.1118   30.4698   -0.7622 C.3       7 UNK        -0.1927 
     47 C          28.9245   31.8501    0.3345 C.2       7 UNK         0.5013 
     48 O          29.2294   32.8538   -0.3113 O.2       7 UNK        -0.5193 
     49 N          29.8034   31.0929    1.0035 N.am      8 UNK        -0.4253 
     50 CA         31.2217   31.4137    1.1614 C.3       8 UNK         0.0242 
     51 CB         32.0893   30.2275    0.7064 C.3       8 UNK        -0.2000 
     52 C          31.5058   31.7889    2.6194 C.2       8 UNK         0.4948 
     53 O          32.0973   32.8413    2.8623 O.2       8 UNK        -0.5275 
     54 N          31.0730   30.9327    3.5589 N.am      9 UNK        -0.4246 
     55 CA         31.1270   31.0442    5.0257 C.3       9 UNK         0.0261 
     56 CB         30.2855   32.2349    5.5219 C.3       9 UNK        -0.1959 
     57 C          32.5414   31.0719    5.6351 C.2       9 UNK         0.5033 
     58 O          32.7882   30.3765    6.6202 O.2       9 UNK        -0.5390 
     59 N          33.4485   31.8475    5.0335 N.am      10 UNK        -0.4215 
     60 CA         34.8660   31.9621    5.3839 C.3       10 UNK         0.0240 
     61 CB         35.3706   33.3419    4.9259 C.3       10 UNK        -0.1982 
     62 C          35.7345   30.8319    4.7938 C.2       10 UNK         0.4970 
     63 O          36.9541   30.8667    4.9659 O.2       10 UNK        -0.4916 
     64 N          35.1128   29.8721    4.0957 N.am      11 UNK        -0.4279 
     65 CA         35.7420   28.6748    3.5254 C.3       11 UNK         0.1003 
     66 C          36.4337   27.7547    4.5737 C.2       11 UNK         0.5709 
     67 N          37.3836   26.9358    4.1418 N.am      11 UNK        -0.7358 
     68 O          36.1015   27.7477    5.7577 O.2       11 UNK        -0.4999 
     69 C69        34.7529   27.8937    2.6136 C.3       12 UNK        -0.0954 
     70 S70        33.1272   27.5069    3.3601 S.3       12 UNK        -0.2268 
     71 C71        33.5170   26.0104    4.3171 C.3       12 UNK         0.0203 
     72 H72        29.6555   20.3186   -4.7546 H         1 UNK         0.0888 
     73 H73        31.3641   20.6150   -4.4205 H         1 UNK         0.0888 
     74 H74        30.4228   19.5755   -3.3493 H         1 UNK         0.0888 
     75 H75        29.8489   20.6016   -1.4438 H         1 UNK         0.3017 
     76 H76        30.0001   23.4767   -1.1338 H         1 UNK         0.0873 
     77 H77        29.4380   22.9575    1.2753 H         1 UNK         0.0745 
     78 H78        29.2810   21.2682    0.8592 H         1 UNK         0.0745 
     79 H79        30.9441   20.8798    2.8284 H         1 UNK         0.0705 
     80 H80        32.6567   21.2029    2.7762 H         1 UNK         0.0705 
     81 H81        33.3628   23.7659    2.7861 H         1 UNK         0.1334 
     82 H82        31.2117   25.9658    5.7720 H         1 UNK         0.1417 
     83 H83        29.6385   22.2611    4.2844 H         1 UNK         0.1562 
     84 H84        29.3081   24.9549    6.8682 H         1 UNK         0.0748 
     85 H85        28.9775   23.2696    6.5758 H         1 UNK         0.0748 
     86 H86        27.4896   26.5528    6.6922 H         1 UNK         0.0940 
     87 H87        26.2978   26.6395    5.4294 H         1 UNK         0.0940 
     88 H88        29.2626   27.3532    5.2548 H         1 UNK         0.0703 
     89 H89        27.9041   26.1602    3.1680 H         1 UNK         0.3081 
     90 H90        29.0675   27.9251    0.3604 H         1 UNK         0.0719 
     91 H91        30.0300   25.2158    1.4209 H         1 UNK         0.0809 
     92 H92        30.0673   25.7413   -0.2682 H         1 UNK         0.0809 
     93 H93        31.0594   26.5474    0.9324 H         1 UNK         0.0809 
     94 H94        27.6701   25.5414    0.3461 H         1 UNK         0.2990 
     95 H95        24.8765   25.6855    1.3827 H         1 UNK         0.0690 
     96 H96        23.1766   26.5285   -0.2689 H         1 UNK         0.0788 
     97 H97        24.3264   27.7514   -0.8111 H         1 UNK         0.0788 
     98 H98        23.7193   27.7797    0.8354 H         1 UNK         0.0788 
     99 H99        25.4607   24.2240   -0.1632 H         1 UNK         0.2993 
    100 H100       25.5044   23.3010   -2.2653 H         1 UNK         0.0949 
    101 H101       26.3172   23.3095   -4.5965 H         1 UNK         0.0767 
    102 H102       25.1966   24.6414   -4.3601 H         1 UNK         0.0767 
    103 H103       26.9264   24.9542   -4.4224 H         1 UNK         0.0767 
    104 H104       28.2979   23.6183   -2.9122 H         1 UNK         0.3013 
    105 H105       26.7264   28.7577    3.2666 H         1 UNK         0.3121 
    106 H106       26.7246   31.2505    4.9352 H         1 UNK         0.0774 
    107 H107       24.5092   30.1129    3.1432 H         1 UNK         0.0815 
    108 H108       24.4584   31.6574    3.9845 H         1 UNK         0.0815 
    109 H109       24.4881   30.1620    4.9054 H         1 UNK         0.0815 
    110 H110       26.7663   29.8410    1.6215 H         1 UNK         0.2987 
    111 H111       26.8486   32.3319    0.2625 H         1 UNK         0.0949 
    112 H112       27.6790   29.5415   -0.6988 H         1 UNK         0.0806 
    113 H113       26.0524   30.2121   -0.7696 H         1 UNK         0.0806 
    114 H114       27.3410   30.9256   -1.7263 H         1 UNK         0.0806 
    115 H115       29.4613   30.2981    1.5328 H         1 UNK         0.3010 
    116 H116       31.4921   32.2745    0.5461 H         1 UNK         0.0829 
    117 H117       31.8736   29.3174    1.2652 H         1 UNK         0.0813 
    118 H118       31.9332   30.0104   -0.3502 H         1 UNK         0.0813 
    119 H119       33.1492   30.4481    0.8385 H         1 UNK         0.0813 
    120 H120       30.6396   30.0693    3.2287 H         1 UNK         0.3038 
    121 H121       30.6549   30.1336    5.3971 H         1 UNK         0.0769 
    122 H122       30.2531   32.2605    6.6119 H         1 UNK         0.0811 
    123 H123       30.6881   33.1904    5.1847 H         1 UNK         0.0811 
    124 H124       29.2562   32.1619    5.1703 H         1 UNK         0.0811 
    125 H125       33.1268   32.3748    4.2206 H         1 UNK         0.3204 
    126 H126       34.9631   31.9062    6.4701 H         1 UNK         0.0748 
    127 H127       36.4105   33.4989    5.2157 H         1 UNK         0.0771 
    128 H128       35.3125   33.4518    3.8421 H         1 UNK         0.0771 
    129 H129       34.7878   34.1460    5.3757 H         1 UNK         0.0771 
    130 H130       34.1067   29.8989    4.0396 H         1 UNK         0.2980 
    131 H131       36.5429   29.0445    2.8822 H         1 UNK         0.0545 
    132 H132       37.6642   26.9233    3.1736 H         1 UNK         0.3459 
    133 H133       37.8378   26.3239    4.8016 H         1 UNK         0.3459 
    134 H134       34.5507   28.4949    1.7263 H         1 UNK         0.0616 
    135 H135       35.2055   26.9769    2.2320 H         1 UNK         0.0616 
    136 H136       33.7110   26.2953    5.3521 H         1 UNK         0.0634 
    137 H137       34.4392   25.5583    3.9500 H         1 UNK         0.0634 
@<TRIPOS>BOND
     1    1    2 1    
     2    1   72 1    
     3    1   73 1    
     4    1   74 1    
     5    2    3 2    
     6    2    4 am   BACKBONE|DICT|INTERRES
     7    4    5 1    
     8    4   75 1    
     9    5    6 1    
    10    5   35 1    
    11    5   76 1    
    12    6    7 1    
    13    6   77 1    
    14    6   78 1    
    15    7    8 1    
    16    8    9 1    
    17    8   79 1    
    18    8   80 1    
    19    9   10 ar   
    20    9   14 ar   
    21   10   11 ar   
    22   10   81 1    
    23   11   12 ar   
    24   11   71 1    
    25   12   13 ar   
    26   12   82 1    
    27   13   14 ar   
    28   13   15 1    
    29   14   83 1    
    30   15   16 1    
    31   15   84 1    
    32   15   85 1    
    33   16   17 1    
    34   17   18 1    
    35   17   86 1    
    36   17   87 1    
    37   18   19 1    
    38   18   37 1    
    39   18   88 1    
    40   19   20 am   BACKBONE|DICT|INTERRES
    41   19   89 1    
    42   20   21 2    
    43   20   22 1    
    44   22   23 1    
    45   22   24 1    
    46   22   90 1    
    47   23   91 1    
    48   23   92 1    
    49   23   93 1    
    50   24   25 am   BACKBONE|DICT|INTERRES
    51   24   94 1    
    52   25   26 2    
    53   25   27 1    
    54   27   28 1    
    55   27   29 1    
    56   27   95 1    
    57   28   96 1    
    58   28   97 1    
    59   28   98 1    
    60   29   30 am   BACKBONE|DICT|INTERRES
    61   29   99 1    
    62   30   31 2    
    63   30   32 1    
    64   32   33 1    
    65   32   34 1    
    66   32  100 1    
    67   33  101 1    
    68   33  102 1    
    69   33  103 1    
    70   34   35 am   BACKBONE|DICT|INTERRES
    71   34  104 1    
    72   35   36 2    
    73   37   38 2    
    74   37   39 am   BACKBONE|DICT|INTERRES
    75   39   40 1    
    76   39  105 1    
    77   40   41 1    
    78   40   42 1    
    79   40  106 1    
    80   41  107 1    
    81   41  108 1    
    82   41  109 1    
    83   42   43 2    
    84   42   44 am   BACKBONE|DICT|INTERRES
    85   44   45 1    
    86   44  110 1    
    87   45   46 1    
    88   45   47 1    
    89   45  111 1    
    90   46  112 1    
    91   46  113 1    
    92   46  114 1    
    93   47   48 2    
    94   47   49 am   BACKBONE|DICT|INTERRES
    95   49   50 1    
    96   49  115 1    
    97   50   51 1    
    98   50   52 1    
    99   50  116 1    
   100   51  117 1    
   101   51  118 1    
   102   51  119 1    
   103   52   53 2    
   104   52   54 am   BACKBONE|DICT|INTERRES
   105   54   55 1    
   106   54  120 1    
   107   55   56 1    
   108   55   57 1    
   109   55  121 1    
   110   56  122 1    
   111   56  123 1    
   112   56  124 1    
   113   57   58 2    
   114   57   59 am   BACKBONE|DICT|INTERRES
   115   59   60 1    
   116   59  125 1    
   117   60   61 1    
   118   60   62 1    
   119   60  126 1    
   120   61  127 1    
   121   61  128 1    
   122   61  129 1    
   123   62   63 2    
   124   62   64 am   BACKBONE|DICT|INTERRES
   125   64   65 1    
   126   64  130 1    
   127   65   66 1    
   128   65   69 1    
   129   65  131 1    
   130   66   67 am   BACKBONE|DICT|INTERRES
   131   66   68 2    
   132   67  132 1    
   133   67  133 1    
   134   69   70 1    
   135   69  134 1    
   136   69  135 1    
   137   70   71 1    
   138   71  136 1    
   139   71  137 1    
@<TRIPOS>SUBSTRUCTURE
     1 UNK         1 GROUP             0       ****    0 ROOT    
