@<TRIPOS>MOLECULE
3R136
137   139    1
SMALL
USER_CHARGES


@<TRIPOS>ATOM
      1 CA         32.2790   23.8660   -3.9405 C.3       0 UNK        -0.1979 
      2 C          32.1094   24.4265   -2.5367 C.2       0 UNK         0.4864 
      3 O          31.8013   25.6093   -2.3839 O.2       0 UNK        -0.5359 
      4 N          32.2921   23.5829   -1.5097 N.am      1 UNK        -0.4318 
      5 CA         32.1901   23.9378   -0.0860 C.3       1 UNK         0.0824 
      6 C6         32.7014   22.7917    0.8261 C.3       12 UNK        -0.0944 
      7 S7         31.7068   21.2553    0.7194 S.3       12 UNK        -0.2672 
      8 C8         31.5452   20.7364    2.4651 C.3       12 UNK         0.0333 
      9 C9         31.0179   21.8411    3.3729 C.ar      12 UNK        -0.0807 
     10 C10        31.7865   22.2858    4.4513 C.ar      12 UNK        -0.0894 
     11 C11        31.3544   23.3538    5.2428 C.ar      12 UNK        -0.0804 
     12 C12        30.1312   23.9701    4.9562 C.ar      12 UNK        -0.0824 
     13 C13        29.3348   23.5147    3.8970 C.ar      12 UNK        -0.0762 
     14 C14        29.7833   22.4430    3.1183 C.ar      12 UNK        -0.0782 
     15 C15        28.0386   24.2126    3.4974 C.3       12 UNK         0.0230 
     16 S16        27.0683   24.9195    4.8685 S.3       12 UNK        -0.2608 
     17 C17        25.8267   25.8599    3.9092 C.3       12 UNK        -0.0989 
     18 CA         26.1804   27.3646    3.7941 C.3       5 UNK         0.0716 
     19 N          27.4952   27.5803    3.1911 N.am      5 UNK        -0.4135 
     20 C          28.3993   28.4666    3.6217 C.2       4 UNK         0.5031 
     21 O          28.2315   29.2149    4.5846 O.2       4 UNK        -0.5229 
     22 CA         29.7325   28.5213    2.8582 C.3       4 UNK         0.0329 
     23 CB         30.7869   27.6762    3.5855 C.3       4 UNK        -0.2001 
     24 N          29.6361   28.0855    1.4620 N.am      4 UNK        -0.4303 
     25 C          28.9587   28.7494    0.5120 C.2       3 UNK         0.5044 
     26 O          28.3529   29.7981    0.7166 O.2       3 UNK        -0.5152 
     27 CA         28.8857   28.1195   -0.8896 C.3       3 UNK         0.0319 
     28 CB         30.0399   28.6342   -1.7626 C.3       3 UNK        -0.2001 
     29 N          28.8940   26.6552   -0.8905 N.am      3 UNK        -0.4354 
     30 C          28.0535   25.8651   -0.2044 C.2       2 UNK         0.4964 
     31 O          27.1285   26.2862    0.4940 O.2       2 UNK        -0.5047 
     32 CA         28.3327   24.3526   -0.2458 C.3       2 UNK         0.0288 
     33 CB         27.5210   23.6958   -1.3726 C.3       2 UNK        -0.2113 
     34 N          29.7473   23.9911   -0.3974 N.am      2 UNK        -0.4145 
     35 C          30.7873   24.4408    0.3277 C.2       1 UNK         0.5006 
     36 O          30.6828   25.2539    1.2476 O.2       1 UNK        -0.5103 
     37 C          25.1100   28.1286    2.9937 C.2       5 UNK         0.5055 
     38 O          24.1959   28.6920    3.5973 O.2       5 UNK        -0.5220 
     39 N          25.2367   28.1400    1.6569 N.am      6 UNK        -0.4450 
     40 CA         24.3301   28.8361    0.7410 C.3       6 UNK         0.0367 
     41 CB         24.5756   28.3353   -0.6913 C.3       6 UNK        -0.1929 
     42 C          24.4517   30.3696    0.8027 C.2       6 UNK         0.5070 
     43 O          23.4414   31.0574    0.6506 O.2       6 UNK        -0.5237 
     44 N          25.6709   30.8772    1.0140 N.am      7 UNK        -0.4739 
     45 CA         25.9919   32.2979    1.1075 C.3       7 UNK         0.0276 
     46 CB         26.3951   32.8281   -0.2853 C.3       7 UNK        -0.1927 
     47 C          27.0655   32.4683    2.1916 C.2       7 UNK         0.5013 
     48 O          26.7406   32.3550    3.3744 O.2       7 UNK        -0.5193 
     49 N          28.3141   32.7165    1.7838 N.am      8 UNK        -0.4253 
     50 CA         29.4966   32.7526    2.6349 C.3       8 UNK         0.0242 
     51 CB         29.6905   34.1637    3.2173 C.3       8 UNK        -0.2000 
     52 C          30.7010   32.3296    1.7869 C.2       8 UNK         0.4948 
     53 O          30.7395   32.6340    0.5917 O.2       8 UNK        -0.5275 
     54 N          31.6607   31.6562    2.4260 N.am      9 UNK        -0.4246 
     55 CA         32.9097   31.1415    1.8704 C.3       9 UNK         0.0261 
     56 CB         32.6497   30.0159    0.8451 C.3       9 UNK        -0.1959 
     57 C          33.7627   30.6500    3.0502 C.2       9 UNK         0.5033 
     58 O          33.3104   30.7091    4.1986 O.2       9 UNK        -0.5390 
     59 N          34.9813   30.1800    2.7596 N.am      10 UNK        -0.4215 
     60 CA         35.9778   29.7345    3.7387 C.3       10 UNK         0.0240 
     61 CB         37.3697   29.7783    3.0780 C.3       10 UNK        -0.1982 
     62 C          35.6624   28.3572    4.3634 C.2       10 UNK         0.4970 
     63 O          36.4485   27.4202    4.2112 O.2       10 UNK        -0.4916 
     64 N          34.5357   28.2636    5.0749 N.am      11 UNK        -0.4279 
     65 CA         34.1458   27.1266    5.9166 C.3       11 UNK         0.1003 
     66 C          33.1878   27.5935    7.0430 C.2       11 UNK         0.5709 
     67 N          33.1550   26.8883    8.1650 N.am      11 UNK        -0.7358 
     68 O          32.4675   28.5806    6.9081 O.2       11 UNK        -0.4999 
     69 C69        33.5752   25.9350    5.0957 C.3       12 UNK        -0.0954 
     70 S70        33.8870   24.3292    5.9001 S.3       12 UNK        -0.2268 
     71 C71        32.2084   23.8300    6.4118 C.3       12 UNK         0.0203 
     72 H72        33.0661   24.4059   -4.4662 H         1 UNK         0.0888 
     73 H73        32.5426   22.8085   -3.9289 H         1 UNK         0.0888 
     74 H74        31.3531   23.9792   -4.5038 H         1 UNK         0.0888 
     75 H75        32.5306   22.6185   -1.6959 H         1 UNK         0.3017 
     76 H76        32.8611   24.7866    0.0635 H         1 UNK         0.0873 
     77 H77        32.7545   23.1430    1.8572 H         1 UNK         0.0745 
     78 H78        33.7295   22.5424    0.5592 H         1 UNK         0.0745 
     79 H79        32.5179   20.3830    2.8110 H         1 UNK         0.0705 
     80 H80        30.8714   19.8803    2.5182 H         1 UNK         0.0705 
     81 H81        32.7393   21.8195    4.6626 H         1 UNK         0.1334 
     82 H82        29.8059   24.8118    5.5516 H         1 UNK         0.1417 
     83 H83        29.1952   22.1034    2.2765 H         1 UNK         0.1562 
     84 H84        27.3919   23.5198    2.9571 H         1 UNK         0.0748 
     85 H85        28.3037   25.0082    2.8030 H         1 UNK         0.0748 
     86 H86        24.8636   25.7404    4.4093 H         1 UNK         0.0940 
     87 H87        25.7075   25.4086    2.9217 H         1 UNK         0.0940 
     88 H88        26.1752   27.7757    4.8061 H         1 UNK         0.0703 
     89 H89        27.7052   27.0365    2.3641 H         1 UNK         0.3081 
     90 H90        30.0619   29.5590    2.8636 H         1 UNK         0.0719 
     91 H91        31.7640   27.7451    3.1092 H         1 UNK         0.0809 
     92 H92        30.9076   28.0109    4.6167 H         1 UNK         0.0809 
     93 H93        30.5033   26.6235    3.6142 H         1 UNK         0.0809 
     94 H94        30.0724   27.1974    1.2307 H         1 UNK         0.2990 
     95 H95        27.9466   28.4397   -1.3432 H         1 UNK         0.0690 
     96 H96        30.0557   29.7250   -1.7881 H         1 UNK         0.0788 
     97 H97        29.9450   28.2872   -2.7916 H         1 UNK         0.0788 
     98 H98        31.0083   28.3010   -1.3865 H         1 UNK         0.0788 
     99 H99        29.6434   26.2146   -1.4089 H         1 UNK         0.2993 
    100 H100       27.9924   23.9317    0.6987 H         1 UNK         0.0949 
    101 H101       27.8431   24.0406   -2.3562 H         1 UNK         0.0767 
    102 H102       27.6147   22.6098   -1.3492 H         1 UNK         0.0767 
    103 H103       26.4593   23.9288   -1.2766 H         1 UNK         0.0767 
    104 H104       29.9587   23.3273   -1.1280 H         1 UNK         0.3013 
    105 H105       25.9799   27.5951    1.2280 H         1 UNK         0.3121 
    106 H106       23.3066   28.5754    1.0195 H         1 UNK         0.0774 
    107 H107       25.5848   28.5674   -1.0314 H         1 UNK         0.0815 
    108 H108       23.8805   28.8008   -1.3914 H         1 UNK         0.0815 
    109 H109       24.4372   27.2564   -0.7651 H         1 UNK         0.0815 
    110 H110       26.4654   30.2515    1.1173 H         1 UNK         0.2987 
    111 H111       25.1173   32.8560    1.4495 H         1 UNK         0.0949 
    112 H112       27.2150   32.2547   -0.7205 H         1 UNK         0.0806 
    113 H113       25.5558   32.7745   -0.9789 H         1 UNK         0.0806 
    114 H114       26.7024   33.8737   -0.2370 H         1 UNK         0.0806 
    115 H115       28.5205   32.7270    0.7925 H         1 UNK         0.3010 
    116 H116       29.3726   32.0342    3.4491 H         1 UNK         0.0829 
    117 H117       28.8404   34.4593    3.8325 H         1 UNK         0.0813 
    118 H118       30.5785   34.2076    3.8490 H         1 UNK         0.0813 
    119 H119       29.8102   34.9097    2.4306 H         1 UNK         0.0813 
    120 H120       31.5922   31.4960    3.4259 H         1 UNK         0.3038 
    121 H121       33.4359   31.9661    1.3858 H         1 UNK         0.0769 
    122 H122       32.2046   29.1391    1.3106 H         1 UNK         0.0811 
    123 H123       33.5749   29.6924    0.3678 H         1 UNK         0.0811 
    124 H124       31.9842   30.3405    0.0459 H         1 UNK         0.0811 
    125 H125       35.2626   30.1385    1.7905 H         1 UNK         0.3204 
    126 H126       35.9887   30.4533    4.5611 H         1 UNK         0.0748 
    127 H127       38.1493   29.4977    3.7877 H         1 UNK         0.0771 
    128 H128       37.4377   29.0942    2.2311 H         1 UNK         0.0771 
    129 H129       37.6087   30.7803    2.7208 H         1 UNK         0.0771 
    130 H130       33.9262   29.0766    5.1351 H         1 UNK         0.2980 
    131 H131       35.0618   26.8000    6.4139 H         1 UNK         0.0545 
    132 H132       32.5377   27.1768    8.9074 H         1 UNK         0.3459 
    133 H133       33.7332   26.0705    8.2795 H         1 UNK         0.3459 
    134 H134       34.0474   25.8850    4.1137 H         1 UNK         0.0616 
    135 H135       32.5099   26.0536    4.9038 H         1 UNK         0.0616 
    136 H136       32.2931   23.0169    7.1338 H         1 UNK         0.0634 
    137 H137       31.7292   24.6576    6.9369 H         1 UNK         0.0634 
@<TRIPOS>BOND
     1    1    2 1    
     2    1   72 1    
     3    1   73 1    
     4    1   74 1    
     5    2    3 2    
     6    2    4 am   BACKBONE|DICT|INTERRES
     7    4    5 1    
     8    4   75 1    
     9    5    6 1    
    10    5   35 1    
    11    5   76 1    
    12    6    7 1    
    13    6   77 1    
    14    6   78 1    
    15    7    8 1    
    16    8    9 1    
    17    8   79 1    
    18    8   80 1    
    19    9   10 ar   
    20    9   14 ar   
    21   10   11 ar   
    22   10   81 1    
    23   11   12 ar   
    24   11   71 1    
    25   12   13 ar   
    26   12   82 1    
    27   13   14 ar   
    28   13   15 1    
    29   14   83 1    
    30   15   16 1    
    31   15   84 1    
    32   15   85 1    
    33   16   17 1    
    34   17   18 1    
    35   17   86 1    
    36   17   87 1    
    37   18   19 1    
    38   18   37 1    
    39   18   88 1    
    40   19   20 am   BACKBONE|DICT|INTERRES
    41   19   89 1    
    42   20   21 2    
    43   20   22 1    
    44   22   23 1    
    45   22   24 1    
    46   22   90 1    
    47   23   91 1    
    48   23   92 1    
    49   23   93 1    
    50   24   25 am   BACKBONE|DICT|INTERRES
    51   24   94 1    
    52   25   26 2    
    53   25   27 1    
    54   27   28 1    
    55   27   29 1    
    56   27   95 1    
    57   28   96 1    
    58   28   97 1    
    59   28   98 1    
    60   29   30 am   BACKBONE|DICT|INTERRES
    61   29   99 1    
    62   30   31 2    
    63   30   32 1    
    64   32   33 1    
    65   32   34 1    
    66   32  100 1    
    67   33  101 1    
    68   33  102 1    
    69   33  103 1    
    70   34   35 am   BACKBONE|DICT|INTERRES
    71   34  104 1    
    72   35   36 2    
    73   37   38 2    
    74   37   39 am   BACKBONE|DICT|INTERRES
    75   39   40 1    
    76   39  105 1    
    77   40   41 1    
    78   40   42 1    
    79   40  106 1    
    80   41  107 1    
    81   41  108 1    
    82   41  109 1    
    83   42   43 2    
    84   42   44 am   BACKBONE|DICT|INTERRES
    85   44   45 1    
    86   44  110 1    
    87   45   46 1    
    88   45   47 1    
    89   45  111 1    
    90   46  112 1    
    91   46  113 1    
    92   46  114 1    
    93   47   48 2    
    94   47   49 am   BACKBONE|DICT|INTERRES
    95   49   50 1    
    96   49  115 1    
    97   50   51 1    
    98   50   52 1    
    99   50  116 1    
   100   51  117 1    
   101   51  118 1    
   102   51  119 1    
   103   52   53 2    
   104   52   54 am   BACKBONE|DICT|INTERRES
   105   54   55 1    
   106   54  120 1    
   107   55   56 1    
   108   55   57 1    
   109   55  121 1    
   110   56  122 1    
   111   56  123 1    
   112   56  124 1    
   113   57   58 2    
   114   57   59 am   BACKBONE|DICT|INTERRES
   115   59   60 1    
   116   59  125 1    
   117   60   61 1    
   118   60   62 1    
   119   60  126 1    
   120   61  127 1    
   121   61  128 1    
   122   61  129 1    
   123   62   63 2    
   124   62   64 am   BACKBONE|DICT|INTERRES
   125   64   65 1    
   126   64  130 1    
   127   65   66 1    
   128   65   69 1    
   129   65  131 1    
   130   66   67 am   BACKBONE|DICT|INTERRES
   131   66   68 2    
   132   67  132 1    
   133   67  133 1    
   134   69   70 1    
   135   69  134 1    
   136   69  135 1    
   137   70   71 1    
   138   71  136 1    
   139   71  137 1    
@<TRIPOS>SUBSTRUCTURE
     1 UNK         1 GROUP             0       ****    0 ROOT    
