@<TRIPOS>MOLECULE
3R136
137   139    1
SMALL
USER_CHARGES


@<TRIPOS>ATOM
      1 CA         28.6702   18.3268    0.9805 C.3       0 UNK        -0.1979 
      2 C          28.5739   19.8387    0.8364 C.2       0 UNK         0.4864 
      3 O          27.9500   20.4898    1.6761 O.2       0 UNK        -0.5359 
      4 N          29.1877   20.3917   -0.2199 N.am      1 UNK        -0.4318 
      5 CA         29.2138   21.8198   -0.5698 C.3       1 UNK         0.0824 
      6 C6         29.9992   22.6949    0.4521 C.3       12 UNK        -0.0944 
      7 S7         31.7242   22.1132    0.6446 S.3       12 UNK        -0.2672 
      8 C8         32.6480   23.6582    0.9256 C.3       12 UNK         0.0333 
      9 C9         32.6347   24.0699    2.3916 C.ar      12 UNK        -0.0807 
     10 C10        33.7672   23.8969    3.1937 C.ar      12 UNK        -0.0894 
     11 C11        33.7583   24.2985    4.5345 C.ar      12 UNK        -0.0804 
     12 C12        32.6090   24.8918    5.0688 C.ar      12 UNK        -0.0824 
     13 C13        31.4699   25.0652    4.2762 C.ar      12 UNK        -0.0762 
     14 C14        31.4888   24.6407    2.9450 C.ar      12 UNK        -0.0782 
     15 C15        30.2077   25.6911    4.8534 C.3       12 UNK         0.0230 
     16 S16        30.2013   27.5118    4.7418 S.3       12 UNK        -0.2608 
     17 C17        30.4446   27.8245    2.9575 C.3       12 UNK        -0.0989 
     18 CA         29.2372   27.4135    2.0739 C.3       5 UNK         0.0716 
     19 N          27.9811   28.0567    2.4678 N.am      5 UNK        -0.4135 
     20 C          27.6674   29.3550    2.3574 C.2       4 UNK         0.5031 
     21 O          28.4547   30.2146    1.9586 O.2       4 UNK        -0.5229 
     22 CA         26.2117   29.7394    2.7001 C.3       4 UNK         0.0329 
     23 CB         25.7648   31.0321    1.9857 C.3       4 UNK        -0.2001 
     24 N          25.2535   28.6481    2.4528 N.am      4 UNK        -0.4303 
     25 C          25.0576   28.0038    1.2920 C.2       3 UNK         0.5044 
     26 O          25.6060   28.3079    0.2293 O.2       3 UNK        -0.5152 
     27 CA         24.1329   26.7751    1.3473 C.3       3 UNK         0.0319 
     28 CB         22.6949   27.1708    0.9765 C.3       3 UNK        -0.2001 
     29 N          24.5805   25.6977    0.4577 N.am      3 UNK        -0.4354 
     30 C          25.7833   25.1047    0.4877 C.2       2 UNK         0.4964 
     31 O          26.6604   25.3542    1.3214 O.2       2 UNK        -0.5047 
     32 CA         26.0539   24.0772   -0.6191 C.3       2 UNK         0.0288 
     33 CB         25.9582   24.7205   -2.0193 C.3       2 UNK        -0.2113 
     34 N          27.3774   23.4885   -0.4130 N.am      2 UNK        -0.4145 
     35 C          27.7884   22.3174   -0.9157 C.2       1 UNK         0.5006 
     36 O          27.0873   21.6249   -1.6593 O.2       1 UNK        -0.5103 
     37 C          29.5426   27.5521    0.5627 C.2       5 UNK         0.5055 
     38 O          30.7120   27.5162    0.1780 O.2       5 UNK        -0.5220 
     39 N          28.4955   27.7153   -0.2643 N.am      6 UNK        -0.4450 
     40 CA         28.5399   27.9952   -1.7055 C.3       6 UNK         0.0367 
     41 CB         29.2238   26.8436   -2.4775 C.3       6 UNK        -0.1929 
     42 C          29.1538   29.3718   -2.0450 C.2       6 UNK         0.5070 
     43 O          29.5915   29.5742   -3.1791 O.2       6 UNK        -0.5237 
     44 N          29.1783   30.2952   -1.0754 N.am      7 UNK        -0.4739 
     45 CA         29.7628   31.6275   -1.1910 C.3       7 UNK         0.0276 
     46 CB         31.2864   31.5497   -0.9408 C.3       7 UNK        -0.1927 
     47 C          29.0033   32.5661   -0.2421 C.2       7 UNK         0.5013 
     48 O          27.8049   32.7738   -0.4391 O.2       7 UNK        -0.5193 
     49 N          29.6959   33.1006    0.7687 N.am      8 UNK        -0.4253 
     50 CA         29.1422   33.9213    1.8426 C.3       8 UNK         0.0242 
     51 CB         29.3013   35.4143    1.4941 C.3       8 UNK        -0.2000 
     52 C          29.8328   33.5184    3.1537 C.2       8 UNK         0.4948 
     53 O          30.4455   34.3620    3.8107 O.2       8 UNK        -0.5275 
     54 N          29.7396   32.2179    3.4696 N.am      9 UNK        -0.4246 
     55 CA         30.4273   31.4680    4.5279 C.3       9 UNK         0.0261 
     56 CB         30.2685   32.1230    5.9158 C.3       9 UNK        -0.1959 
     57 C          31.9030   31.1883    4.1867 C.2       9 UNK         0.5033 
     58 O          32.5048   31.8760    3.3579 O.2       9 UNK        -0.5390 
     59 N          32.4551   30.1576    4.8321 N.am      10 UNK        -0.4215 
     60 CA         33.8284   29.6840    4.6937 C.3       10 UNK         0.0240 
     61 CB         33.9757   28.8312    3.4175 C.3       10 UNK        -0.1982 
     62 C          34.1751   28.8573    5.9370 C.2       10 UNK         0.4970 
     63 O          33.2718   28.4719    6.6847 O.2       10 UNK        -0.4916 
     64 N          35.4742   28.5910    6.1186 N.am      11 UNK        -0.4279 
     65 CA         36.0404   27.7424    7.1842 C.3       11 UNK         0.1003 
     66 C          35.8769   28.3039    8.6313 C.2       11 UNK         0.5709 
     67 N          35.5972   29.5893    8.8129 N.am      11 UNK        -0.7358 
     68 O          36.0419   27.5773    9.6089 O.2       11 UNK        -0.4999 
     69 C69        35.6040   26.2526    7.0597 C.3       12 UNK        -0.0954 
     70 S70        36.0755   25.5143    5.4589 S.3       12 UNK        -0.2268 
     71 C71        34.9840   24.0603    5.4051 C.3       12 UNK         0.0203 
     72 H72        27.6746   17.8843    0.9654 H         1 UNK         0.0888 
     73 H73        29.2538   17.8763    0.1778 H         1 UNK         0.0888 
     74 H74        29.1436   18.0703    1.9279 H         1 UNK         0.0888 
     75 H75        29.6596   19.7878   -0.8779 H         1 UNK         0.3017 
     76 H76        29.7567   21.8770   -1.5147 H         1 UNK         0.0873 
     77 H77        29.5165   22.6873    1.4308 H         1 UNK         0.0745 
     78 H78        30.0231   23.7335    0.1180 H         1 UNK         0.0745 
     79 H79        32.2458   24.4613    0.3060 H         1 UNK         0.0705 
     80 H80        33.6754   23.5083    0.5903 H         1 UNK         0.0705 
     81 H81        34.6569   23.4456    2.7758 H         1 UNK         0.1334 
     82 H82        32.5973   25.2132    6.1012 H         1 UNK         0.1417 
     83 H83        30.6123   24.7615    2.3284 H         1 UNK         0.1562 
     84 H84        30.1065   25.4084    5.9022 H         1 UNK         0.0748 
     85 H85        29.3232   25.2941    4.3533 H         1 UNK         0.0748 
     86 H86        31.3533   27.3130    2.6422 H         1 UNK         0.0940 
     87 H87        30.6574   28.8844    2.8194 H         1 UNK         0.0940 
     88 H88        29.0594   26.3499    2.2206 H         1 UNK         0.0703 
     89 H89        27.2596   27.4211    2.7782 H         1 UNK         0.3081 
     90 H90        26.1949   29.9303    3.7741 H         1 UNK         0.0719 
     91 H91        24.7352   31.2889    2.2338 H         1 UNK         0.0809 
     92 H92        25.8369   30.9413    0.9011 H         1 UNK         0.0809 
     93 H93        26.3879   31.8774    2.2790 H         1 UNK         0.0809 
     94 H94        24.7503   28.3218    3.2673 H         1 UNK         0.2990 
     95 H95        24.1364   26.3792    2.3650 H         1 UNK         0.0690 
     96 H96        22.0139   26.3236    1.0618 H         1 UNK         0.0788 
     97 H97        22.6329   27.5514   -0.0441 H         1 UNK         0.0788 
     98 H98        22.3202   27.9528    1.6385 H         1 UNK         0.0788 
     99 H99        23.9422   25.4430   -0.2817 H         1 UNK         0.2993 
    100 H100       25.3046   23.2876   -0.5284 H         1 UNK         0.0949 
    101 H101       26.5759   25.6142   -2.0950 H         1 UNK         0.0767 
    102 H102       26.2670   24.0318   -2.8057 H         1 UNK         0.0767 
    103 H103       24.9345   25.0189   -2.2468 H         1 UNK         0.0767 
    104 H104       27.9492   23.9894    0.2547 H         1 UNK         0.3013 
    105 H105       27.5642   27.7537    0.1405 H         1 UNK         0.3121 
    106 H106       27.4989   28.0401   -2.0288 H         1 UNK         0.0774 
    107 H107       29.0230   26.9209   -3.5465 H         1 UNK         0.0815 
    108 H108       30.3069   26.8620   -2.3528 H         1 UNK         0.0815 
    109 H109       28.8719   25.8667   -2.1487 H         1 UNK         0.0815 
    110 H110       28.7705   30.0792   -0.1716 H         1 UNK         0.2987 
    111 H111       29.5957   32.0100   -2.2003 H         1 UNK         0.0949 
    112 H112       31.7725   30.9237   -1.6894 H         1 UNK         0.0806 
    113 H113       31.7519   32.5342   -1.0048 H         1 UNK         0.0806 
    114 H114       31.5194   31.1253    0.0372 H         1 UNK         0.0806 
    115 H115       30.6690   32.8460    0.8743 H         1 UNK         0.3010 
    116 H116       28.0786   33.7066    1.9666 H         1 UNK         0.0829 
    117 H117       28.7716   35.6641    0.5747 H         1 UNK         0.0813 
    118 H118       28.8936   36.0454    2.2847 H         1 UNK         0.0813 
    119 H119       30.3489   35.6877    1.3624 H         1 UNK         0.0813 
    120 H120       29.2353   31.6206    2.8145 H         1 UNK         0.3038 
    121 H121       29.9168   30.5051    4.5626 H         1 UNK         0.0769 
    122 H122       30.8518   33.0398    6.0049 H         1 UNK         0.0811 
    123 H123       29.2265   32.3645    6.1249 H         1 UNK         0.0811 
    124 H124       30.6087   31.4512    6.7046 H         1 UNK         0.0811 
    125 H125       31.9212   29.6386    5.5212 H         1 UNK         0.3204 
    126 H126       34.4973   30.5459    4.6459 H         1 UNK         0.0748 
    127 H127       35.0199   28.5737    3.2373 H         1 UNK         0.0771 
    128 H128       33.4254   27.8933    3.4990 H         1 UNK         0.0771 
    129 H129       33.6165   29.3575    2.5330 H         1 UNK         0.0771 
    130 H130       36.1438   28.9594    5.4590 H         1 UNK         0.2980 
    131 H131       37.1180   27.7671    7.0194 H         1 UNK         0.0545 
    132 H132       35.5054   29.9462    9.7509 H         1 UNK         0.3459 
    133 H133       35.4713   30.2021    8.0238 H         1 UNK         0.3459 
    134 H134       36.0707   25.6470    7.8383 H         1 UNK         0.0616 
    135 H135       34.5274   26.1562    7.2034 H         1 UNK         0.0616 
    136 H136       34.6820   23.7761    6.4144 H         1 UNK         0.0634 
    137 H137       35.5553   23.2160    5.0165 H         1 UNK         0.0634 
@<TRIPOS>BOND
     1    1    2 1    
     2    1   72 1    
     3    1   73 1    
     4    1   74 1    
     5    2    3 2    
     6    2    4 am   BACKBONE|DICT|INTERRES
     7    4    5 1    
     8    4   75 1    
     9    5    6 1    
    10    5   35 1    
    11    5   76 1    
    12    6    7 1    
    13    6   77 1    
    14    6   78 1    
    15    7    8 1    
    16    8    9 1    
    17    8   79 1    
    18    8   80 1    
    19    9   10 ar   
    20    9   14 ar   
    21   10   11 ar   
    22   10   81 1    
    23   11   12 ar   
    24   11   71 1    
    25   12   13 ar   
    26   12   82 1    
    27   13   14 ar   
    28   13   15 1    
    29   14   83 1    
    30   15   16 1    
    31   15   84 1    
    32   15   85 1    
    33   16   17 1    
    34   17   18 1    
    35   17   86 1    
    36   17   87 1    
    37   18   19 1    
    38   18   37 1    
    39   18   88 1    
    40   19   20 am   BACKBONE|DICT|INTERRES
    41   19   89 1    
    42   20   21 2    
    43   20   22 1    
    44   22   23 1    
    45   22   24 1    
    46   22   90 1    
    47   23   91 1    
    48   23   92 1    
    49   23   93 1    
    50   24   25 am   BACKBONE|DICT|INTERRES
    51   24   94 1    
    52   25   26 2    
    53   25   27 1    
    54   27   28 1    
    55   27   29 1    
    56   27   95 1    
    57   28   96 1    
    58   28   97 1    
    59   28   98 1    
    60   29   30 am   BACKBONE|DICT|INTERRES
    61   29   99 1    
    62   30   31 2    
    63   30   32 1    
    64   32   33 1    
    65   32   34 1    
    66   32  100 1    
    67   33  101 1    
    68   33  102 1    
    69   33  103 1    
    70   34   35 am   BACKBONE|DICT|INTERRES
    71   34  104 1    
    72   35   36 2    
    73   37   38 2    
    74   37   39 am   BACKBONE|DICT|INTERRES
    75   39   40 1    
    76   39  105 1    
    77   40   41 1    
    78   40   42 1    
    79   40  106 1    
    80   41  107 1    
    81   41  108 1    
    82   41  109 1    
    83   42   43 2    
    84   42   44 am   BACKBONE|DICT|INTERRES
    85   44   45 1    
    86   44  110 1    
    87   45   46 1    
    88   45   47 1    
    89   45  111 1    
    90   46  112 1    
    91   46  113 1    
    92   46  114 1    
    93   47   48 2    
    94   47   49 am   BACKBONE|DICT|INTERRES
    95   49   50 1    
    96   49  115 1    
    97   50   51 1    
    98   50   52 1    
    99   50  116 1    
   100   51  117 1    
   101   51  118 1    
   102   51  119 1    
   103   52   53 2    
   104   52   54 am   BACKBONE|DICT|INTERRES
   105   54   55 1    
   106   54  120 1    
   107   55   56 1    
   108   55   57 1    
   109   55  121 1    
   110   56  122 1    
   111   56  123 1    
   112   56  124 1    
   113   57   58 2    
   114   57   59 am   BACKBONE|DICT|INTERRES
   115   59   60 1    
   116   59  125 1    
   117   60   61 1    
   118   60   62 1    
   119   60  126 1    
   120   61  127 1    
   121   61  128 1    
   122   61  129 1    
   123   62   63 2    
   124   62   64 am   BACKBONE|DICT|INTERRES
   125   64   65 1    
   126   64  130 1    
   127   65   66 1    
   128   65   69 1    
   129   65  131 1    
   130   66   67 am   BACKBONE|DICT|INTERRES
   131   66   68 2    
   132   67  132 1    
   133   67  133 1    
   134   69   70 1    
   135   69  134 1    
   136   69  135 1    
   137   70   71 1    
   138   71  136 1    
   139   71  137 1    
@<TRIPOS>SUBSTRUCTURE
     1 UNK         1 GROUP             0       ****    0 ROOT    
