@<TRIPOS>MOLECULE
3R136
137   139    1
SMALL
USER_CHARGES


@<TRIPOS>ATOM
      1 CA         33.1154   22.9980   -1.3609 C.3       0 UNK        -0.1979 
      2 C          32.6999   24.4251   -1.6864 C.2       0 UNK         0.4864 
      3 O          33.5605   25.2713   -1.9326 O.2       0 UNK        -0.5359 
      4 N          31.3909   24.6943   -1.6896 N.am      1 UNK        -0.4318 
      5 CA         30.7897   25.9920   -1.9937 C.3       1 UNK         0.0824 
      6 C6         30.9633   27.0340   -0.8501 C.3       12 UNK        -0.0944 
      7 S7         30.0447   26.6544    0.6837 S.3       12 UNK        -0.2672 
      8 C8         31.3574   25.9049    1.6931 C.3       12 UNK         0.0333 
      9 C9         30.8365   25.5433    3.0735 C.ar      12 UNK        -0.0807 
     10 C10        31.3258   26.1987    4.2061 C.ar      12 UNK        -0.0894 
     11 C11        30.8331   25.8818    5.4756 C.ar      12 UNK        -0.0804 
     12 C12        29.8385   24.9081    5.6061 C.ar      12 UNK        -0.0824 
     13 C13        29.3413   24.2453    4.4784 C.ar      12 UNK        -0.0762 
     14 C14        29.8588   24.5545    3.2173 C.ar      12 UNK        -0.0782 
     15 C15        28.2352   23.2055    4.6251 C.3       12 UNK         0.0230 
     16 S16        26.7243   23.6275    3.6873 S.3       12 UNK        -0.2608 
     17 C17        26.4064   25.3453    4.2136 C.3       12 UNK        -0.0989 
     18 CA         26.5900   26.3338    3.0223 C.3       5 UNK         0.0716 
     19 N          25.4483   26.3608    2.0968 N.am      5 UNK        -0.4135 
     20 C          24.1660   26.6569    2.3735 C.2       4 UNK         0.5031 
     21 O          23.7354   26.8937    3.5036 O.2       4 UNK        -0.5229 
     22 CA         23.1711   26.7094    1.1951 C.3       4 UNK         0.0329 
     23 CB         22.8646   28.1693    0.8205 C.3       4 UNK        -0.2001 
     24 N          23.6291   26.0030   -0.0015 N.am      4 UNK        -0.4303 
     25 C          23.7497   24.6734   -0.1157 C.2       3 UNK         0.5044 
     26 O          23.3745   23.8765    0.7447 O.2       3 UNK        -0.5152 
     27 CA         24.4193   24.1382   -1.3977 C.3       3 UNK         0.0319 
     28 CB         23.3617   23.5635   -2.3544 C.3       3 UNK        -0.2001 
     29 N          25.2430   25.1153   -2.1259 N.am      3 UNK        -0.4354 
     30 C          26.3178   25.7486   -1.6348 C.2       2 UNK         0.4964 
     31 O          26.6981   25.6496   -0.4660 O.2       2 UNK        -0.5047 
     32 CA         27.0421   26.7080   -2.5950 C.3       2 UNK         0.0288 
     33 CB         26.4462   28.1213   -2.4793 C.3       2 UNK        -0.2113 
     34 N          28.4773   26.7773   -2.3162 N.am      2 UNK        -0.4145 
     35 C          29.3387   25.7617   -2.4660 C.2       1 UNK         0.5006 
     36 O          29.0272   24.6746   -2.9633 O.2       1 UNK        -0.5103 
     37 C          27.0151   27.7433    3.4906 C.2       5 UNK         0.5055 
     38 O          26.2596   28.7104    3.3676 O.2       5 UNK        -0.5220 
     39 N          28.2464   27.8201    4.0204 N.am      6 UNK        -0.4450 
     40 CA         28.9057   29.0138    4.5658 C.3       6 UNK         0.0367 
     41 CB         28.2353   29.4528    5.8840 C.3       6 UNK        -0.1929 
     42 C          29.0380   30.1562    3.5395 C.2       6 UNK         0.5070 
     43 O          28.7198   31.3072    3.8437 O.2       6 UNK        -0.5237 
     44 N          29.5224   29.8099    2.3436 N.am      7 UNK        -0.4739 
     45 CA         29.8603   30.7322    1.2623 C.3       7 UNK         0.0276 
     46 CB         28.9005   30.4848    0.0854 C.3       7 UNK        -0.1927 
     47 C          31.3192   30.4909    0.8504 C.2       7 UNK         0.5013 
     48 O          31.8796   29.4462    1.1887 O.2       7 UNK        -0.5193 
     49 N          31.9051   31.4546    0.1227 N.am      8 UNK        -0.4253 
     50 CA         33.2961   31.4654   -0.3542 C.3       8 UNK         0.0242 
     51 CB         33.4950   30.4148   -1.4724 C.3       8 UNK        -0.2000 
     52 C          34.2829   31.3317    0.8228 C.2       8 UNK         0.4948 
     53 O          34.3700   32.2528    1.6381 O.2       8 UNK        -0.5275 
     54 N          34.9594   30.1808    0.9360 N.am      9 UNK        -0.4246 
     55 CA         35.7371   29.7714    2.1069 C.3       9 UNK         0.0261 
     56 CB         36.7204   28.6616    1.6913 C.3       9 UNK        -0.1959 
     57 C          34.7915   29.3288    3.2414 C.2       9 UNK         0.5033 
     58 O          34.7082   28.1394    3.5556 O.2       9 UNK        -0.5390 
     59 N          34.0687   30.2998    3.8135 N.am      10 UNK        -0.4215 
     60 CA         32.9790   30.1389    4.7808 C.3       10 UNK         0.0240 
     61 CB         32.1529   31.4389    4.7982 C.3       10 UNK        -0.1982 
     62 C          33.4285   29.7081    6.1944 C.2       10 UNK         0.4970 
     63 O          32.9779   30.2917    7.1813 O.2       10 UNK        -0.4916 
     64 N          34.2849   28.6825    6.2695 N.am      11 UNK        -0.4279 
     65 CA         34.7780   28.0285    7.4960 C.3       11 UNK         0.1003 
     66 C          35.6152   28.9426    8.4442 C.2       11 UNK         0.5709 
     67 N          36.1597   30.0582    7.9727 N.am      11 UNK        -0.7358 
     68 O          35.8099   28.6232    9.6151 O.2       11 UNK        -0.4999 
     69 C69        33.6605   27.2341    8.2364 C.3       12 UNK        -0.0954 
     70 S70        32.9746   25.8949    7.2036 S.3       12 UNK        -0.2268 
     71 C71        31.3765   26.5998    6.7001 C.3       12 UNK         0.0203 
     72 H72        33.7594   22.9867   -0.4819 H         1 UNK         0.0888 
     73 H73        32.2558   22.3591   -1.1589 H         1 UNK         0.0888 
     74 H74        33.6689   22.5684   -2.1954 H         1 UNK         0.0888 
     75 H75        30.7153   23.9541   -1.5499 H         1 UNK         0.3017 
     76 H76        31.3077   26.3860   -2.8708 H         1 UNK         0.0873 
     77 H77        32.0212   27.1473   -0.6091 H         1 UNK         0.0745 
     78 H78        30.6589   28.0232   -1.1931 H         1 UNK         0.0745 
     79 H79        32.1960   26.6004    1.7650 H         1 UNK         0.0705 
     80 H80        31.7330   25.0072    1.2013 H         1 UNK         0.0705 
     81 H81        32.0968   26.9506    4.1016 H         1 UNK         0.1334 
     82 H82        29.4514   24.6680    6.5872 H         1 UNK         0.1417 
     83 H83        29.4758   24.0479    2.3412 H         1 UNK         0.1562 
     84 H84        27.9658   23.0732    5.6742 H         1 UNK         0.0748 
     85 H85        28.6064   22.2393    4.2808 H         1 UNK         0.0748 
     86 H86        27.0650   25.5852    5.0491 H         1 UNK         0.0940 
     87 H87        25.4042   25.3978    4.6373 H         1 UNK         0.0940 
     88 H88        27.4242   25.9831    2.4119 H         1 UNK         0.0703 
     89 H89        25.6995   26.1732    1.1306 H         1 UNK         0.3081 
     90 H90        22.2438   26.2397    1.5302 H         1 UNK         0.0719 
     91 H91        23.7557   28.6911    0.4687 H         1 UNK         0.0809 
     92 H92        22.1063   28.2300    0.0396 H         1 UNK         0.0809 
     93 H93        22.4849   28.7209    1.6818 H         1 UNK         0.0809 
     94 H94        23.9519   26.5723   -0.7695 H         1 UNK         0.2990 
     95 H95        25.0801   23.3245   -1.0916 H         1 UNK         0.0690 
     96 H96        23.8241   23.0821   -3.2164 H         1 UNK         0.0788 
     97 H97        22.6867   24.3376   -2.7217 H         1 UNK         0.0788 
     98 H98        22.7511   22.8092   -1.8555 H         1 UNK         0.0788 
     99 H99        24.9861   25.2799   -3.0891 H         1 UNK         0.2993 
    100 H100       26.9139   26.3486   -3.6184 H         1 UNK         0.0949 
    101 H101       26.5513   28.5225   -1.4699 H         1 UNK         0.0767 
    102 H102       26.9312   28.8143   -3.1672 H         1 UNK         0.0767 
    103 H103       25.3825   28.1209   -2.7211 H         1 UNK         0.0767 
    104 H104       28.8015   27.6077   -1.8451 H         1 UNK         0.3013 
    105 H105       28.8048   26.9758    4.0393 H         1 UNK         0.3121 
    106 H106       29.9257   28.7167    4.8086 H         1 UNK         0.0774 
    107 H107       28.7862   30.2721    6.3478 H         1 UNK         0.0815 
    108 H108       27.2136   29.7980    5.7227 H         1 UNK         0.0815 
    109 H109       28.2048   28.6355    6.6044 H         1 UNK         0.0815 
    110 H110       29.8278   28.8566    2.1891 H         1 UNK         0.2987 
    111 H111       29.7690   31.7688    1.5942 H         1 UNK         0.0949 
    112 H112       29.1342   31.1302   -0.7621 H         1 UNK         0.0806 
    113 H113       28.9463   29.4535   -0.2631 H         1 UNK         0.0806 
    114 H114       27.8689   30.6891    0.3729 H         1 UNK         0.0806 
    115 H115       31.3722   32.2883   -0.0829 H         1 UNK         0.3010 
    116 H116       33.4734   32.4499   -0.7899 H         1 UNK         0.0829 
    117 H117       32.8362   30.6185   -2.3166 H         1 UNK         0.0813 
    118 H118       34.5163   30.4349   -1.8553 H         1 UNK         0.0813 
    119 H119       33.2849   29.3991   -1.1357 H         1 UNK         0.0813 
    120 H120       34.7677   29.4599    0.2555 H         1 UNK         0.3038 
    121 H121       36.3209   30.6215    2.4668 H         1 UNK         0.0769 
    122 H122       37.3213   28.3356    2.5413 H         1 UNK         0.0811 
    123 H123       37.4101   29.0103    0.9224 H         1 UNK         0.0811 
    124 H124       36.2014   27.7839    1.3035 H         1 UNK         0.0811 
    125 H125       34.1946   31.2329    3.4347 H         1 UNK         0.3204 
    126 H126       32.3298   29.3455    4.4067 H         1 UNK         0.0748 
    127 H127       31.2761   31.3424    5.4401 H         1 UNK         0.0771 
    128 H128       32.7378   32.2818    5.1684 H         1 UNK         0.0771 
    129 H129       31.7924   31.6944    3.8016 H         1 UNK         0.0771 
    130 H130       34.5899   28.2712    5.3900 H         1 UNK         0.2980 
    131 H131       35.5046   27.2948    7.1456 H         1 UNK         0.0545 
    132 H132       36.0149   30.3310    7.0143 H         1 UNK         0.3459 
    133 H133       36.7090   30.6376    8.5876 H         1 UNK         0.3459 
    134 H134       32.8631   27.8980    8.5737 H         1 UNK         0.0616 
    135 H135       34.0569   26.7590    9.1352 H         1 UNK         0.0616 
    136 H136       31.4862   27.6598    6.4765 H         1 UNK         0.0634 
    137 H137       30.6761   26.5335    7.5340 H         1 UNK         0.0634 
@<TRIPOS>BOND
     1    1    2 1    
     2    1   72 1    
     3    1   73 1    
     4    1   74 1    
     5    2    3 2    
     6    2    4 am   BACKBONE|DICT|INTERRES
     7    4    5 1    
     8    4   75 1    
     9    5    6 1    
    10    5   35 1    
    11    5   76 1    
    12    6    7 1    
    13    6   77 1    
    14    6   78 1    
    15    7    8 1    
    16    8    9 1    
    17    8   79 1    
    18    8   80 1    
    19    9   10 ar   
    20    9   14 ar   
    21   10   11 ar   
    22   10   81 1    
    23   11   12 ar   
    24   11   71 1    
    25   12   13 ar   
    26   12   82 1    
    27   13   14 ar   
    28   13   15 1    
    29   14   83 1    
    30   15   16 1    
    31   15   84 1    
    32   15   85 1    
    33   16   17 1    
    34   17   18 1    
    35   17   86 1    
    36   17   87 1    
    37   18   19 1    
    38   18   37 1    
    39   18   88 1    
    40   19   20 am   BACKBONE|DICT|INTERRES
    41   19   89 1    
    42   20   21 2    
    43   20   22 1    
    44   22   23 1    
    45   22   24 1    
    46   22   90 1    
    47   23   91 1    
    48   23   92 1    
    49   23   93 1    
    50   24   25 am   BACKBONE|DICT|INTERRES
    51   24   94 1    
    52   25   26 2    
    53   25   27 1    
    54   27   28 1    
    55   27   29 1    
    56   27   95 1    
    57   28   96 1    
    58   28   97 1    
    59   28   98 1    
    60   29   30 am   BACKBONE|DICT|INTERRES
    61   29   99 1    
    62   30   31 2    
    63   30   32 1    
    64   32   33 1    
    65   32   34 1    
    66   32  100 1    
    67   33  101 1    
    68   33  102 1    
    69   33  103 1    
    70   34   35 am   BACKBONE|DICT|INTERRES
    71   34  104 1    
    72   35   36 2    
    73   37   38 2    
    74   37   39 am   BACKBONE|DICT|INTERRES
    75   39   40 1    
    76   39  105 1    
    77   40   41 1    
    78   40   42 1    
    79   40  106 1    
    80   41  107 1    
    81   41  108 1    
    82   41  109 1    
    83   42   43 2    
    84   42   44 am   BACKBONE|DICT|INTERRES
    85   44   45 1    
    86   44  110 1    
    87   45   46 1    
    88   45   47 1    
    89   45  111 1    
    90   46  112 1    
    91   46  113 1    
    92   46  114 1    
    93   47   48 2    
    94   47   49 am   BACKBONE|DICT|INTERRES
    95   49   50 1    
    96   49  115 1    
    97   50   51 1    
    98   50   52 1    
    99   50  116 1    
   100   51  117 1    
   101   51  118 1    
   102   51  119 1    
   103   52   53 2    
   104   52   54 am   BACKBONE|DICT|INTERRES
   105   54   55 1    
   106   54  120 1    
   107   55   56 1    
   108   55   57 1    
   109   55  121 1    
   110   56  122 1    
   111   56  123 1    
   112   56  124 1    
   113   57   58 2    
   114   57   59 am   BACKBONE|DICT|INTERRES
   115   59   60 1    
   116   59  125 1    
   117   60   61 1    
   118   60   62 1    
   119   60  126 1    
   120   61  127 1    
   121   61  128 1    
   122   61  129 1    
   123   62   63 2    
   124   62   64 am   BACKBONE|DICT|INTERRES
   125   64   65 1    
   126   64  130 1    
   127   65   66 1    
   128   65   69 1    
   129   65  131 1    
   130   66   67 am   BACKBONE|DICT|INTERRES
   131   66   68 2    
   132   67  132 1    
   133   67  133 1    
   134   69   70 1    
   135   69  134 1    
   136   69  135 1    
   137   70   71 1    
   138   71  136 1    
   139   71  137 1    
@<TRIPOS>SUBSTRUCTURE
     1 UNK         1 GROUP             0       ****    0 ROOT    
