@<TRIPOS>MOLECULE
3R136
137   139    1
SMALL
USER_CHARGES


@<TRIPOS>ATOM
      1 CA         32.6122   19.8883    1.9987 C.3       0 UNK        -0.1979 
      2 C          31.3522   19.1341    1.5814 C.2       0 UNK         0.4864 
      3 O          31.2709   17.9289    1.8162 O.2       0 UNK        -0.5359 
      4 N          30.3537   19.7757    0.9640 N.am      1 UNK        -0.4318 
      5 CA         30.2615   21.1897    0.5971 C.3       1 UNK         0.0824 
      6 C6         30.1044   22.1468    1.8128 C.3       12 UNK        -0.0944 
      7 S7         28.7345   21.7211    2.9461 S.3       12 UNK        -0.2672 
      8 C8         29.1643   22.7171    4.4072 C.3       12 UNK         0.0333 
      9 C9         28.9865   24.2050    4.1431 C.ar      12 UNK        -0.0807 
     10 C10        30.0758   24.9852    3.7420 C.ar      12 UNK        -0.0894 
     11 C11        29.9142   26.3487    3.4827 C.ar      12 UNK        -0.0804 
     12 C12        28.6564   26.9337    3.6566 C.ar      12 UNK        -0.0824 
     13 C13        27.5570   26.1656    4.0487 C.ar      12 UNK        -0.0762 
     14 C14        27.7288   24.7992    4.2902 C.ar      12 UNK        -0.0782 
     15 C15        26.1881   26.8114    4.2180 C.3       12 UNK         0.0230 
     16 S16        25.2573   26.8758    2.6505 S.3       12 UNK        -0.2608 
     17 C17        26.0877   28.2408    1.7650 C.3       12 UNK        -0.0989 
     18 CA         26.9373   27.7241    0.5630 C.3       5 UNK         0.0716 
     19 N          26.1172   27.1092   -0.4902 N.am      5 UNK        -0.4135 
     20 C          25.1876   27.7217   -1.2438 C.2       4 UNK         0.5031 
     21 O          24.8738   28.9075   -1.1225 O.2       4 UNK        -0.5229 
     22 CA         24.4780   26.8890   -2.3309 C.3       4 UNK         0.0329 
     23 CB         25.0421   27.2318   -3.7199 C.3       4 UNK        -0.2001 
     24 N          24.5760   25.4439   -2.1249 N.am      4 UNK        -0.4303 
     25 C          23.9529   24.7569   -1.1574 C.2       3 UNK         0.5044 
     26 O          23.1253   25.2512   -0.3916 O.2       3 UNK        -0.5152 
     27 CA         24.3247   23.2681   -1.0075 C.3       3 UNK         0.0319 
     28 CB         23.2104   22.3758   -1.5785 C.3       3 UNK        -0.2001 
     29 N          25.6041   22.8925   -1.6263 N.am      3 UNK        -0.4354 
     30 C          26.8053   23.3627   -1.2627 C.2       2 UNK         0.4964 
     31 O          26.9756   24.2198   -0.3927 O.2       2 UNK        -0.5047 
     32 CA         28.0157   22.8405   -2.0496 C.3       2 UNK         0.0288 
     33 CB         28.5218   23.9137   -3.0285 C.3       2 UNK        -0.2113 
     34 N          29.0938   22.4726   -1.1331 N.am      2 UNK        -0.4145 
     35 C          29.1097   21.3432   -0.4128 C.2       1 UNK         0.5006 
     36 O          28.2662   20.4466   -0.5253 O.2       1 UNK        -0.5103 
     37 C          27.9240   28.7756   -0.0094 C.2       5 UNK         0.5055 
     38 O          28.1427   28.8326   -1.2229 O.2       5 UNK        -0.5220 
     39 N          28.5396   29.5653    0.8761 N.am      6 UNK        -0.4450 
     40 CA         29.4624   30.6611    0.5965 C.3       6 UNK         0.0367 
     41 CB         30.8487   30.1224    0.1830 C.3       6 UNK        -0.1929 
     42 C          29.5337   31.5266    1.8646 C.2       6 UNK         0.5070 
     43 O          28.8370   31.2340    2.8424 O.2       6 UNK        -0.5237 
     44 N          30.3633   32.5764    1.8334 N.am      7 UNK        -0.4739 
     45 CA         30.6469   33.4327    2.9877 C.3       7 UNK         0.0276 
     46 CB         31.4136   34.6785    2.5148 C.3       7 UNK        -0.1927 
     47 C          31.4641   32.6815    4.0511 C.2       7 UNK         0.5013 
     48 O          32.3852   31.9425    3.6957 O.2       7 UNK        -0.5193 
     49 N          31.1612   32.9282    5.3335 N.am      8 UNK        -0.4253 
     50 CA         31.7863   32.2749    6.4930 C.3       8 UNK         0.0242 
     51 CB         31.1501   32.8094    7.7859 C.3       8 UNK        -0.2000 
     52 C          33.3197   32.4019    6.5575 C.2       8 UNK         0.4948 
     53 O          33.9790   31.4891    7.0548 O.2       8 UNK        -0.5275 
     54 N          33.8602   33.5009    6.0122 N.am      9 UNK        -0.4246 
     55 CA         35.2961   33.7367    5.8456 C.3       9 UNK         0.0261 
     56 CB         35.5189   35.1842    5.3780 C.3       9 UNK        -0.1959 
     57 C          35.9802   32.7486    4.8803 C.2       9 UNK         0.5033 
     58 O          37.1746   32.4938    5.0421 O.2       9 UNK        -0.5390 
     59 N          35.2299   32.2105    3.9074 N.am      10 UNK        -0.4215 
     60 CA         35.6908   31.1614    2.9986 C.3       10 UNK         0.0240 
     61 CB         34.9863   31.3012    1.6376 C.3       10 UNK        -0.1982 
     62 C          35.4465   29.7682    3.5969 C.2       10 UNK         0.4970 
     63 O          36.3073   28.8989    3.4543 O.2       10 UNK        -0.4916 
     64 N          34.2874   29.5768    4.2432 N.am      11 UNK        -0.4279 
     65 CA         33.8890   28.3041    4.8687 C.3       11 UNK         0.1003 
     66 C          34.7433   27.9124    6.1052 C.2       11 UNK         0.5709 
     67 N          35.1691   28.8604    6.9309 N.am      11 UNK        -0.7358 
     68 O          35.0264   26.7349    6.3126 O.2       11 UNK        -0.4999 
     69 C69        32.3777   28.2502    5.2159 C.3       12 UNK        -0.0954 
     70 S70        31.3125   28.7452    3.8256 S.3       12 UNK        -0.2268 
     71 C71        31.0789   27.1699    2.9455 C.3       12 UNK         0.0203 
     72 H72        33.4536   19.1999    2.0749 H         1 UNK         0.0888 
     73 H73        32.8926   20.6608    1.2851 H         1 UNK         0.0888 
     74 H74        32.4694   20.3472    2.9763 H         1 UNK         0.0888 
     75 H75        29.5314   19.2575    0.6773 H         1 UNK         0.3017 
     76 H76        31.1701   21.4563    0.0545 H         1 UNK         0.0873 
     77 H77        31.0298   22.1657    2.3874 H         1 UNK         0.0745 
     78 H78        29.9591   23.1739    1.4730 H         1 UNK         0.0745 
     79 H79        28.5279   22.4133    5.2397 H         1 UNK         0.0705 
     80 H80        30.1886   22.4984    4.7134 H         1 UNK         0.0705 
     81 H81        31.0445   24.5234    3.6084 H         1 UNK         0.1334 
     82 H82        28.5365   27.9908    3.4739 H         1 UNK         0.1417 
     83 H83        26.8824   24.1949    4.5879 H         1 UNK         0.1562 
     84 H84        26.2889   27.8150    4.6339 H         1 UNK         0.0748 
     85 H85        25.6019   26.2462    4.9442 H         1 UNK         0.0748 
     86 H86        26.6790   28.8009    2.4872 H         1 UNK         0.0940 
     87 H87        25.3252   28.9439    1.4279 H         1 UNK         0.0940 
     88 H88        27.5759   26.9196    0.9316 H         1 UNK         0.0703 
     89 H89        26.3069   26.1261   -0.6518 H         1 UNK         0.3081 
     90 H90        23.4209   27.1629   -2.3131 H         1 UNK         0.0719 
     91 H91        26.0993   26.9751   -3.8007 H         1 UNK         0.0809 
     92 H92        24.5048   26.7060   -4.5094 H         1 UNK         0.0809 
     93 H93        24.9512   28.2996   -3.9245 H         1 UNK         0.0809 
     94 H94        25.2212   24.9433   -2.7175 H         1 UNK         0.2990 
     95 H95        24.4082   23.0681    0.0629 H         1 UNK         0.0690 
     96 H96        23.4111   21.3205   -1.3925 H         1 UNK         0.0788 
     97 H97        23.0945   22.5130   -2.6544 H         1 UNK         0.0788 
     98 H98        22.2495   22.6060   -1.1157 H         1 UNK         0.0788 
     99 H99        25.5565   22.2021   -2.3626 H         1 UNK         0.2993 
    100 H100       27.7239   21.9579   -2.6238 H         1 UNK         0.0949 
    101 H101       29.3772   23.5552   -3.6017 H         1 UNK         0.0767 
    102 H102       27.7458   24.1871   -3.7448 H         1 UNK         0.0767 
    103 H103       28.8235   24.8257   -2.5110 H         1 UNK         0.0767 
    104 H104       29.7961   23.1772   -0.9615 H         1 UNK         0.3013 
    105 H105       28.2953   29.5219    1.8582 H         1 UNK         0.3121 
    106 H106       29.0489   31.2709   -0.2093 H         1 UNK         0.0774 
    107 H107       31.3425   29.6035    1.0035 H         1 UNK         0.0815 
    108 H108       31.5096   30.9312   -0.1293 H         1 UNK         0.0815 
    109 H109       30.7793   29.4302   -0.6558 H         1 UNK         0.0815 
    110 H110       30.9216   32.7335    1.0073 H         1 UNK         0.2987 
    111 H111       29.6960   33.7474    3.4238 H         1 UNK         0.0949 
    112 H112       32.3746   34.4167    2.0694 H         1 UNK         0.0806 
    113 H113       30.8423   35.2392    1.7747 H         1 UNK         0.0806 
    114 H114       31.6138   35.3551    3.3466 H         1 UNK         0.0806 
    115 H115       30.4041   33.5657    5.5354 H         1 UNK         0.3010 
    116 H116       31.5580   31.2103    6.4175 H         1 UNK         0.0829 
    117 H117       30.0767   32.6203    7.8089 H         1 UNK         0.0813 
    118 H118       31.5803   32.3225    8.6626 H         1 UNK         0.0813 
    119 H119       31.3064   33.8828    7.8999 H         1 UNK         0.0813 
    120 H120       33.2365   34.1994    5.6352 H         1 UNK         0.3038 
    121 H121       35.7673   33.6155    6.8234 H         1 UNK         0.0769 
    122 H122       35.0495   35.3740    4.4118 H         1 UNK         0.0811 
    123 H123       36.5831   35.3995    5.2707 H         1 UNK         0.0811 
    124 H124       35.1169   35.9003    6.0950 H         1 UNK         0.0811 
    125 H125       34.2362   32.4216    3.8722 H         1 UNK         0.3204 
    126 H126       36.7642   31.2729    2.8300 H         1 UNK         0.0748 
    127 H127       33.9090   31.1510    1.7146 H         1 UNK         0.0771 
    128 H128       35.1565   32.2861    1.2028 H         1 UNK         0.0771 
    129 H129       35.3648   30.5638    0.9286 H         1 UNK         0.0771 
    130 H130       33.6032   30.3237    4.2658 H         1 UNK         0.2980 
    131 H131       34.0658   27.5287    4.1208 H         1 UNK         0.0545 
    132 H132       35.7279   28.6041    7.7285 H         1 UNK         0.3459 
    133 H133       34.8627   29.8231    6.8181 H         1 UNK         0.3459 
    134 H134       32.0904   27.2482    5.5404 H         1 UNK         0.0616 
    135 H135       32.1579   28.9155    6.0520 H         1 UNK         0.0616 
    136 H136       32.0094   26.6010    2.9683 H         1 UNK         0.0634 
    137 H137       30.8800   27.3880    1.8958 H         1 UNK         0.0634 
@<TRIPOS>BOND
     1    1    2 1    
     2    1   72 1    
     3    1   73 1    
     4    1   74 1    
     5    2    3 2    
     6    2    4 am   BACKBONE|DICT|INTERRES
     7    4    5 1    
     8    4   75 1    
     9    5    6 1    
    10    5   35 1    
    11    5   76 1    
    12    6    7 1    
    13    6   77 1    
    14    6   78 1    
    15    7    8 1    
    16    8    9 1    
    17    8   79 1    
    18    8   80 1    
    19    9   10 ar   
    20    9   14 ar   
    21   10   11 ar   
    22   10   81 1    
    23   11   12 ar   
    24   11   71 1    
    25   12   13 ar   
    26   12   82 1    
    27   13   14 ar   
    28   13   15 1    
    29   14   83 1    
    30   15   16 1    
    31   15   84 1    
    32   15   85 1    
    33   16   17 1    
    34   17   18 1    
    35   17   86 1    
    36   17   87 1    
    37   18   19 1    
    38   18   37 1    
    39   18   88 1    
    40   19   20 am   BACKBONE|DICT|INTERRES
    41   19   89 1    
    42   20   21 2    
    43   20   22 1    
    44   22   23 1    
    45   22   24 1    
    46   22   90 1    
    47   23   91 1    
    48   23   92 1    
    49   23   93 1    
    50   24   25 am   BACKBONE|DICT|INTERRES
    51   24   94 1    
    52   25   26 2    
    53   25   27 1    
    54   27   28 1    
    55   27   29 1    
    56   27   95 1    
    57   28   96 1    
    58   28   97 1    
    59   28   98 1    
    60   29   30 am   BACKBONE|DICT|INTERRES
    61   29   99 1    
    62   30   31 2    
    63   30   32 1    
    64   32   33 1    
    65   32   34 1    
    66   32  100 1    
    67   33  101 1    
    68   33  102 1    
    69   33  103 1    
    70   34   35 am   BACKBONE|DICT|INTERRES
    71   34  104 1    
    72   35   36 2    
    73   37   38 2    
    74   37   39 am   BACKBONE|DICT|INTERRES
    75   39   40 1    
    76   39  105 1    
    77   40   41 1    
    78   40   42 1    
    79   40  106 1    
    80   41  107 1    
    81   41  108 1    
    82   41  109 1    
    83   42   43 2    
    84   42   44 am   BACKBONE|DICT|INTERRES
    85   44   45 1    
    86   44  110 1    
    87   45   46 1    
    88   45   47 1    
    89   45  111 1    
    90   46  112 1    
    91   46  113 1    
    92   46  114 1    
    93   47   48 2    
    94   47   49 am   BACKBONE|DICT|INTERRES
    95   49   50 1    
    96   49  115 1    
    97   50   51 1    
    98   50   52 1    
    99   50  116 1    
   100   51  117 1    
   101   51  118 1    
   102   51  119 1    
   103   52   53 2    
   104   52   54 am   BACKBONE|DICT|INTERRES
   105   54   55 1    
   106   54  120 1    
   107   55   56 1    
   108   55   57 1    
   109   55  121 1    
   110   56  122 1    
   111   56  123 1    
   112   56  124 1    
   113   57   58 2    
   114   57   59 am   BACKBONE|DICT|INTERRES
   115   59   60 1    
   116   59  125 1    
   117   60   61 1    
   118   60   62 1    
   119   60  126 1    
   120   61  127 1    
   121   61  128 1    
   122   61  129 1    
   123   62   63 2    
   124   62   64 am   BACKBONE|DICT|INTERRES
   125   64   65 1    
   126   64  130 1    
   127   65   66 1    
   128   65   69 1    
   129   65  131 1    
   130   66   67 am   BACKBONE|DICT|INTERRES
   131   66   68 2    
   132   67  132 1    
   133   67  133 1    
   134   69   70 1    
   135   69  134 1    
   136   69  135 1    
   137   70   71 1    
   138   71  136 1    
   139   71  137 1    
@<TRIPOS>SUBSTRUCTURE
     1 UNK         1 GROUP             0       ****    0 ROOT    
