@<TRIPOS>MOLECULE
3R136
137   139    1
SMALL
USER_CHARGES


@<TRIPOS>ATOM
      1 CA         25.7726   21.1950    1.9913 C.3       0 UNK        -0.1979 
      2 C          26.2911   22.5594    1.5663 C.2       0 UNK         0.4864 
      3 O          25.5918   23.2826    0.8535 O.2       0 UNK        -0.5359 
      4 N          27.5039   22.9263    2.0091 N.am      1 UNK        -0.4318 
      5 CA         28.2072   24.1715    1.6633 C.3       1 UNK         0.0824 
      6 C6         29.5966   24.2746    2.3333 C.3       12 UNK        -0.0944 
      7 S7         30.7174   22.9497    1.7880 S.3       12 UNK        -0.2672 
      8 C8         32.3130   23.5862    2.4072 C.3       12 UNK         0.0333 
      9 C9         32.9242   24.7618    1.6377 C.ar      12 UNK        -0.0807 
     10 C10        34.0098   25.4259    2.2179 C.ar      12 UNK        -0.0894 
     11 C11        34.6595   26.4664    1.5490 C.ar      12 UNK        -0.0804 
     12 C12        34.1998   26.8649    0.2906 C.ar      12 UNK        -0.0824 
     13 C13        33.1154   26.2160   -0.3082 C.ar      12 UNK        -0.0762 
     14 C14        32.4850   25.1643    0.3669 C.ar      12 UNK        -0.0782 
     15 C15        32.6732   26.6144   -1.7117 C.3       12 UNK         0.0230 
     16 S16        31.3932   27.9101   -1.7015 S.3       12 UNK        -0.2608 
     17 C17        29.8958   26.9280   -1.3590 C.3       12 UNK        -0.0989 
     18 CA         28.5636   27.6764   -1.6649 C.3       5 UNK         0.0716 
     19 N          27.4516   26.7317   -1.6590 N.am      5 UNK        -0.4135 
     20 C          26.9982   26.0385   -2.7051 C.2       4 UNK         0.5031 
     21 O          27.4311   26.1711   -3.8509 O.2       4 UNK        -0.5229 
     22 CA         25.9065   24.9856   -2.4381 C.3       4 UNK         0.0329 
     23 CB         26.5269   23.5785   -2.4097 C.3       4 UNK        -0.2001 
     24 N          25.1493   25.1885   -1.1981 N.am      4 UNK        -0.4303 
     25 C          24.1750   26.0966   -1.0416 C.2       3 UNK         0.5044 
     26 O          23.8675   26.9224   -1.9016 O.2       3 UNK        -0.5152 
     27 CA         23.3927   26.0655    0.2815 C.3       3 UNK         0.0319 
     28 CB         22.3633   24.9229    0.2686 C.3       3 UNK        -0.2001 
     29 N          24.2855   25.8951    1.4279 N.am      3 UNK        -0.4354 
     30 C          24.6144   26.8659    2.2935 C.2       2 UNK         0.4964 
     31 O          24.1292   27.9974    2.2715 O.2       2 UNK        -0.5047 
     32 CA         25.6712   26.5368    3.3703 C.3       2 UNK         0.0288 
     33 CB         24.9965   26.2190    4.7142 C.3       2 UNK        -0.2113 
     34 N          26.5788   25.4398    3.0182 N.am      2 UNK        -0.4145 
     35 C          27.3916   25.4439    1.9521 C.2       1 UNK         0.5006 
     36 O          27.4675   26.3837    1.1672 O.2       1 UNK        -0.5103 
     37 C          28.1834   28.7898   -0.6663 C.2       5 UNK         0.5055 
     38 O          27.0774   29.3308   -0.7455 O.2       5 UNK        -0.5220 
     39 N          29.0712   29.0639    0.2892 N.am      6 UNK        -0.4450 
     40 CA         28.7640   29.6188    1.5989 C.3       6 UNK         0.0367 
     41 CB         29.3574   31.0296    1.7201 C.3       6 UNK        -0.1929 
     42 C          29.4040   28.6626    2.6138 C.2       6 UNK         0.5070 
     43 O          30.2664   27.8634    2.2360 O.2       6 UNK        -0.5237 
     44 N          28.9802   28.7565    3.8799 N.am      7 UNK        -0.4739 
     45 CA         29.4888   27.9363    4.9846 C.3       7 UNK         0.0276 
     46 CB         28.7309   28.3063    6.2693 C.3       7 UNK        -0.1927 
     47 C          31.0065   28.0944    5.1910 C.2       7 UNK         0.5013 
     48 O          31.5526   29.1631    4.9050 O.2       7 UNK        -0.5193 
     49 N          31.6501   27.0455    5.7220 N.am      8 UNK        -0.4253 
     50 CA         33.1067   26.9253    5.8869 C.3       8 UNK         0.0242 
     51 CB         33.4361   25.5178    6.4110 C.3       8 UNK        -0.2000 
     52 C          33.7786   28.0028    6.7642 C.2       8 UNK         0.4948 
     53 O          34.9997   28.1479    6.7073 O.2       8 UNK        -0.5275 
     54 N          32.9864   28.7453    7.5481 N.am      9 UNK        -0.4246 
     55 CA         33.4241   29.9311    8.2855 C.3       9 UNK         0.0261 
     56 CB         32.4034   30.2300    9.3964 C.3       9 UNK        -0.1959 
     57 C          33.6172   31.1717    7.3885 C.2       9 UNK         0.5033 
     58 O          34.3105   32.0990    7.8102 O.2       9 UNK        -0.5390 
     59 N          32.9945   31.1890    6.2008 N.am      10 UNK        -0.4215 
     60 CA         32.9983   32.3102    5.2604 C.3       10 UNK         0.0240 
     61 CB         31.5518   32.7845    5.0311 C.3       10 UNK        -0.1982 
     62 C          33.6586   31.9315    3.9277 C.2       10 UNK         0.4970 
     63 O          34.5218   32.6757    3.4623 O.2       10 UNK        -0.4916 
     64 N          33.2305   30.8091    3.3306 N.am      11 UNK        -0.4279 
     65 CA         33.6806   30.2724    2.0288 C.3       11 UNK         0.1003 
     66 C          33.3579   31.1518    0.7794 C.2       11 UNK         0.5709 
     67 N          32.6572   32.2727    0.9015 N.am      11 UNK        -0.7358 
     68 O          33.7269   30.7952   -0.3368 O.2       11 UNK        -0.4999 
     69 C69        35.1727   29.8335    2.0416 C.3       12 UNK        -0.0954 
     70 S70        35.5008   28.5094    3.2479 S.3       12 UNK        -0.2268 
     71 C71        35.8987   27.1055    2.1624 C.3       12 UNK         0.0203 
     72 H72        25.5772   20.5807    1.1130 H         1 UNK         0.0888 
     73 H73        24.8406   21.3048    2.5449 H         1 UNK         0.0888 
     74 H74        26.4850   20.6665    2.6244 H         1 UNK         0.0888 
     75 H75        28.0328   22.2822    2.5804 H         1 UNK         0.3017 
     76 H76        28.3594   24.1499    0.5821 H         1 UNK         0.0873 
     77 H77        30.0671   25.2297    2.0917 H         1 UNK         0.0745 
     78 H78        29.5102   24.2403    3.4209 H         1 UNK         0.0745 
     79 H79        32.1886   23.8634    3.4552 H         1 UNK         0.0705 
     80 H80        33.0295   22.7639    2.3910 H         1 UNK         0.0705 
     81 H81        34.3722   25.1117    3.1874 H         1 UNK         0.1334 
     82 H82        34.7019   27.6633   -0.2382 H         1 UNK         0.1417 
     83 H83        31.6644   24.6531   -0.1150 H         1 UNK         0.1562 
     84 H84        32.3178   25.7418   -2.2618 H         1 UNK         0.0748 
     85 H85        33.5321   26.9868   -2.2722 H         1 UNK         0.0748 
     86 H86        29.9209   26.5635   -0.3297 H         1 UNK         0.0940 
     87 H87        29.9505   26.0350   -1.9838 H         1 UNK         0.0940 
     88 H88        28.6327   28.1457   -2.6485 H         1 UNK         0.0703 
     89 H89        27.0383   26.5850   -0.7426 H         1 UNK         0.3081 
     90 H90        25.2062   25.0279   -3.2751 H         1 UNK         0.0719 
     91 H91        27.2374   23.4674   -1.5899 H         1 UNK         0.0809 
     92 H92        25.7622   22.8100   -2.2948 H         1 UNK         0.0809 
     93 H93        27.0617   23.3666   -3.3366 H         1 UNK         0.0809 
     94 H94        25.3188   24.5176   -0.4505 H         1 UNK         0.2990 
     95 H95        22.8444   27.0065    0.3621 H         1 UNK         0.0690 
     96 H96        21.7539   24.9316    1.1724 H         1 UNK         0.0788 
     97 H97        22.8419   23.9451    0.1981 H         1 UNK         0.0788 
     98 H98        21.6851   25.0176   -0.5806 H         1 UNK         0.0788 
     99 H99        24.7511   24.9964    1.5014 H         1 UNK         0.2993 
    100 H100       26.2811   27.4337    3.4981 H         1 UNK         0.0949 
    101 H101       24.3352   27.0308    5.0209 H         1 UNK         0.0767 
    102 H102       24.3942   25.3113    4.6580 H         1 UNK         0.0767 
    103 H103       25.7329   26.0876    5.5074 H         1 UNK         0.0767 
    104 H104       26.5517   24.6159    3.6012 H         1 UNK         0.3013 
    105 H105       29.9322   28.5264    0.2913 H         1 UNK         0.3121 
    106 H106       27.6846   29.6437    1.7651 H         1 UNK         0.0774 
    107 H107       30.4444   31.0026    1.6775 H         1 UNK         0.0815 
    108 H108       29.0798   31.4925    2.6676 H         1 UNK         0.0815 
    109 H109       29.0037   31.6812    0.9212 H         1 UNK         0.0815 
    110 H110       28.3010   29.4645    4.1169 H         1 UNK         0.2987 
    111 H111       29.2823   26.8925    4.7377 H         1 UNK         0.0949 
    112 H112       28.8939   29.3488    6.5468 H         1 UNK         0.0806 
    113 H113       27.6575   28.1528    6.1552 H         1 UNK         0.0806 
    114 H114       29.0541   27.6909    7.1100 H         1 UNK         0.0806 
    115 H115       31.1119   26.2256    5.9627 H         1 UNK         0.3010 
    116 H116       33.5416   27.0230    4.8907 H         1 UNK         0.0829 
    117 H117       33.0702   24.7446    5.7356 H         1 UNK         0.0813 
    118 H118       34.5141   25.3774    6.5032 H         1 UNK         0.0813 
    119 H119       32.9995   25.3420    7.3949 H         1 UNK         0.0813 
    120 H120       31.9973   28.5448    7.5496 H         1 UNK         0.3038 
    121 H121       34.3856   29.7132    8.7557 H         1 UNK         0.0769 
    122 H122       31.4167   30.4551    8.9895 H         1 UNK         0.0811 
    123 H123       32.7144   31.0907    9.9903 H         1 UNK         0.0811 
    124 H124       32.3020   29.3872   10.0804 H         1 UNK         0.0811 
    125 H125       32.4793   30.3629    5.9019 H         1 UNK         0.3204 
    126 H126       33.5619   33.1498    5.6726 H         1 UNK         0.0748 
    127 H127       31.1039   33.1390    5.9596 H         1 UNK         0.0771 
    128 H128       31.5173   33.6109    4.3200 H         1 UNK         0.0771 
    129 H129       30.9176   31.9873    4.6407 H         1 UNK         0.0771 
    130 H130       32.5271   30.2459    3.8032 H         1 UNK         0.2980 
    131 H131       33.0806   29.3733    1.8794 H         1 UNK         0.0545 
    132 H132       32.4559   32.8169    0.0780 H         1 UNK         0.3459 
    133 H133       32.3714   32.6010    1.8083 H         1 UNK         0.3459 
    134 H134       35.4894   29.4907    1.0563 H         1 UNK         0.0616 
    135 H135       35.8216   30.6779    2.2762 H         1 UNK         0.0616 
    136 H136       36.5923   27.4240    1.3827 H         1 UNK         0.0634 
    137 H137       36.4372   26.3615    2.7514 H         1 UNK         0.0634 
@<TRIPOS>BOND
     1    1    2 1    
     2    1   72 1    
     3    1   73 1    
     4    1   74 1    
     5    2    3 2    
     6    2    4 am   BACKBONE|DICT|INTERRES
     7    4    5 1    
     8    4   75 1    
     9    5    6 1    
    10    5   35 1    
    11    5   76 1    
    12    6    7 1    
    13    6   77 1    
    14    6   78 1    
    15    7    8 1    
    16    8    9 1    
    17    8   79 1    
    18    8   80 1    
    19    9   10 ar   
    20    9   14 ar   
    21   10   11 ar   
    22   10   81 1    
    23   11   12 ar   
    24   11   71 1    
    25   12   13 ar   
    26   12   82 1    
    27   13   14 ar   
    28   13   15 1    
    29   14   83 1    
    30   15   16 1    
    31   15   84 1    
    32   15   85 1    
    33   16   17 1    
    34   17   18 1    
    35   17   86 1    
    36   17   87 1    
    37   18   19 1    
    38   18   37 1    
    39   18   88 1    
    40   19   20 am   BACKBONE|DICT|INTERRES
    41   19   89 1    
    42   20   21 2    
    43   20   22 1    
    44   22   23 1    
    45   22   24 1    
    46   22   90 1    
    47   23   91 1    
    48   23   92 1    
    49   23   93 1    
    50   24   25 am   BACKBONE|DICT|INTERRES
    51   24   94 1    
    52   25   26 2    
    53   25   27 1    
    54   27   28 1    
    55   27   29 1    
    56   27   95 1    
    57   28   96 1    
    58   28   97 1    
    59   28   98 1    
    60   29   30 am   BACKBONE|DICT|INTERRES
    61   29   99 1    
    62   30   31 2    
    63   30   32 1    
    64   32   33 1    
    65   32   34 1    
    66   32  100 1    
    67   33  101 1    
    68   33  102 1    
    69   33  103 1    
    70   34   35 am   BACKBONE|DICT|INTERRES
    71   34  104 1    
    72   35   36 2    
    73   37   38 2    
    74   37   39 am   BACKBONE|DICT|INTERRES
    75   39   40 1    
    76   39  105 1    
    77   40   41 1    
    78   40   42 1    
    79   40  106 1    
    80   41  107 1    
    81   41  108 1    
    82   41  109 1    
    83   42   43 2    
    84   42   44 am   BACKBONE|DICT|INTERRES
    85   44   45 1    
    86   44  110 1    
    87   45   46 1    
    88   45   47 1    
    89   45  111 1    
    90   46  112 1    
    91   46  113 1    
    92   46  114 1    
    93   47   48 2    
    94   47   49 am   BACKBONE|DICT|INTERRES
    95   49   50 1    
    96   49  115 1    
    97   50   51 1    
    98   50   52 1    
    99   50  116 1    
   100   51  117 1    
   101   51  118 1    
   102   51  119 1    
   103   52   53 2    
   104   52   54 am   BACKBONE|DICT|INTERRES
   105   54   55 1    
   106   54  120 1    
   107   55   56 1    
   108   55   57 1    
   109   55  121 1    
   110   56  122 1    
   111   56  123 1    
   112   56  124 1    
   113   57   58 2    
   114   57   59 am   BACKBONE|DICT|INTERRES
   115   59   60 1    
   116   59  125 1    
   117   60   61 1    
   118   60   62 1    
   119   60  126 1    
   120   61  127 1    
   121   61  128 1    
   122   61  129 1    
   123   62   63 2    
   124   62   64 am   BACKBONE|DICT|INTERRES
   125   64   65 1    
   126   64  130 1    
   127   65   66 1    
   128   65   69 1    
   129   65  131 1    
   130   66   67 am   BACKBONE|DICT|INTERRES
   131   66   68 2    
   132   67  132 1    
   133   67  133 1    
   134   69   70 1    
   135   69  134 1    
   136   69  135 1    
   137   70   71 1    
   138   71  136 1    
   139   71  137 1    
@<TRIPOS>SUBSTRUCTURE
     1 UNK         1 GROUP             0       ****    0 ROOT    
