@<TRIPOS>MOLECULE
3R136
137   139    1
SMALL
USER_CHARGES


@<TRIPOS>ATOM
      1 CA         27.5805   20.5212   -1.6946 C.3       0 UNK        -0.1979 
      2 C          27.8224   21.6741   -0.7328 C.2       0 UNK         0.4864 
      3 O          27.6597   22.8314   -1.1137 O.2       0 UNK        -0.5359 
      4 N          28.1890   21.3710    0.5201 N.am      1 UNK        -0.4318 
      5 CA         28.5049   22.3437    1.5781 C.3       1 UNK         0.0824 
      6 C6         29.0835   21.6238    2.8252 C.3       12 UNK        -0.0944 
      7 S7         30.3027   22.6176    3.7474 S.3       12 UNK        -0.2672 
      8 C8         31.8458   22.2851    2.8339 C.3       12 UNK         0.0333 
      9 C9         32.3454   23.5350    2.1230 C.ar      12 UNK        -0.0807 
     10 C10        33.2435   24.3940    2.7628 C.ar      12 UNK        -0.0894 
     11 C11        33.7157   25.5491    2.1223 C.ar      12 UNK        -0.0804 
     12 C12        33.2496   25.8453    0.8342 C.ar      12 UNK        -0.0824 
     13 C13        32.3591   24.9877    0.1786 C.ar      12 UNK        -0.0762 
     14 C14        31.9258   23.8274    0.8235 C.ar      12 UNK        -0.0782 
     15 C15        31.8979   25.2683   -1.2456 C.3       12 UNK         0.0230 
     16 S16        30.1761   25.8713   -1.3093 S.3       12 UNK        -0.2608 
     17 C17        30.3868   27.6550   -1.6615 C.3       12 UNK        -0.0989 
     18 CA         29.6872   28.6018   -0.6555 C.3       5 UNK         0.0716 
     19 N          28.2386   28.3806   -0.5736 N.am      5 UNK        -0.4135 
     20 C          27.3733   29.1127    0.1398 C.2       4 UNK         0.5031 
     21 O          27.7210   30.0204    0.8957 O.2       4 UNK        -0.5229 
     22 CA         25.8663   28.8168    0.0098 C.3       4 UNK         0.0329 
     23 CB         25.2107   29.8212   -0.9569 C.3       4 UNK        -0.2001 
     24 N          25.4784   27.4395   -0.3333 N.am      4 UNK        -0.4303 
     25 C          25.7348   26.7253   -1.4376 C.2       3 UNK         0.5044 
     26 O          26.4757   27.1118   -2.3428 O.2       3 UNK        -0.5152 
     27 CA         25.0430   25.3504   -1.5393 C.3       3 UNK         0.0319 
     28 CB         25.4512   24.5763   -2.8067 C.3       3 UNK        -0.2001 
     29 N          25.2681   24.5058   -0.3591 N.am      3 UNK        -0.4354 
     30 C          24.6016   24.6173    0.8020 C.2       2 UNK         0.4964 
     31 O          23.7787   25.5090    1.0153 O.2       2 UNK        -0.5047 
     32 CA         24.8659   23.5841    1.9150 C.3       2 UNK         0.0288 
     33 CB         23.6817   22.6097    2.0305 C.3       2 UNK        -0.2113 
     34 N          26.0948   22.8117    1.7356 N.am      2 UNK        -0.4145 
     35 C          27.3323   23.2887    1.9293 C.2       1 UNK         0.5006 
     36 O          27.5629   24.4319    2.3252 O.2       1 UNK        -0.5103 
     37 C          30.3963   28.6158    0.7106 C.2       5 UNK         0.5055 
     38 O          31.2414   29.4815    0.9376 O.2       5 UNK        -0.5220 
     39 N          30.0123   27.6971    1.6065 N.am      6 UNK        -0.4450 
     40 CA         30.5623   27.6014    2.9570 C.3       6 UNK         0.0367 
     41 CB         30.1065   26.2914    3.6086 C.3       6 UNK        -0.1929 
     42 C          30.1916   28.8011    3.8409 C.2       6 UNK         0.5070 
     43 O          31.0271   29.2573    4.6206 O.2       6 UNK        -0.5237 
     44 N          28.9611   29.3084    3.6869 N.am      7 UNK        -0.4739 
     45 CA         28.4723   30.5011    4.3791 C.3       7 UNK         0.0276 
     46 CB         26.9392   30.5676    4.2873 C.3       7 UNK        -0.1927 
     47 C          29.1153   31.7807    3.8252 C.2       7 UNK         0.5013 
     48 O          29.5135   32.6409    4.6100 O.2       7 UNK        -0.5193 
     49 N          29.2395   31.8633    2.4923 N.am      8 UNK        -0.4253 
     50 CA         29.8901   32.9632    1.7758 C.3       8 UNK         0.0242 
     51 CB         29.6644   32.7979    0.2644 C.3       8 UNK        -0.2000 
     52 C          31.3901   33.0816    2.0955 C.2       8 UNK         0.4948 
     53 O          31.8761   34.1926    2.3105 O.2       8 UNK        -0.5275 
     54 N          32.0887   31.9389    2.1455 N.am      9 UNK        -0.4246 
     55 CA         33.5020   31.8454    2.5202 C.3       9 UNK         0.0261 
     56 CB         34.0532   30.4907    2.0465 C.3       9 UNK        -0.1959 
     57 C          33.7549   32.0079    4.0300 C.2       9 UNK         0.5033 
     58 O          34.8949   32.2809    4.4085 O.2       9 UNK        -0.5390 
     59 N          32.7148   31.8024    4.8544 N.am      10 UNK        -0.4215 
     60 CA         32.7437   31.6931    6.3189 C.3       10 UNK         0.0240 
     61 CB         33.1169   33.0397    6.9747 C.3       10 UNK        -0.1982 
     62 C          33.6359   30.5191    6.7687 C.2       10 UNK         0.4970 
     63 O          34.5512   30.7009    7.5744 O.2       10 UNK        -0.4916 
     64 N          33.3710   29.3456    6.1817 N.am      11 UNK        -0.4279 
     65 CA         34.1343   28.1037    6.3556 C.3       11 UNK         0.1003 
     66 C          34.0981   27.5431    7.8049 C.2       11 UNK         0.5709 
     67 N          35.1232   26.8039    8.2064 N.am      11 UNK        -0.7358 
     68 O          33.1387   27.7357    8.5504 O.2       11 UNK        -0.4999 
     69 C69        33.6961   27.0349    5.3130 C.3       12 UNK        -0.0954 
     70 S70        35.1182   26.2112    4.5267 S.3       12 UNK        -0.2268 
     71 C71        34.7665   26.4731    2.7491 C.3       12 UNK         0.0203 
     72 H72        28.2543   20.5992   -2.5474 H         1 UNK         0.0888 
     73 H73        27.7423   19.5530   -1.2212 H         1 UNK         0.0888 
     74 H74        26.5565   20.5517   -2.0658 H         1 UNK         0.0888 
     75 H75        28.2922   20.3988    0.7753 H         1 UNK         0.3017 
     76 H76        29.2738   22.9922    1.1625 H         1 UNK         0.0873 
     77 H77        28.2874   21.3253    3.5104 H         1 UNK         0.0745 
     78 H78        29.5745   20.6913    2.5424 H         1 UNK         0.0745 
     79 H79        31.7067   21.4774    2.1142 H         1 UNK         0.0705 
     80 H80        32.5993   21.9311    3.5390 H         1 UNK         0.0705 
     81 H81        33.5789   24.1401    3.7577 H         1 UNK         0.1334 
     82 H82        33.6041   26.7334    0.3286 H         1 UNK         0.1417 
     83 H83        31.2637   23.1509    0.3029 H         1 UNK         0.1562 
     84 H84        31.9544   24.3438   -1.8224 H         1 UNK         0.0748 
     85 H85        32.5752   25.9627   -1.7437 H         1 UNK         0.0748 
     86 H86        31.4462   27.9075   -1.7313 H         1 UNK         0.0940 
     87 H87        29.9858   27.8365   -2.6600 H         1 UNK         0.0940 
     88 H88        29.7993   29.6121   -1.0540 H         1 UNK         0.0703 
     89 H89        27.8467   27.6953   -1.2141 H         1 UNK         0.3081 
     90 H90        25.4428   28.9946    0.9996 H         1 UNK         0.0719 
     91 H91        25.5789   29.7033   -1.9766 H         1 UNK         0.0809 
     92 H92        24.1271   29.7045   -0.9756 H         1 UNK         0.0809 
     93 H93        25.4196   30.8484   -0.6540 H         1 UNK         0.0809 
     94 H94        24.8709   26.9852    0.3434 H         1 UNK         0.2990 
     95 H95        23.9716   25.5471   -1.6189 H         1 UNK         0.0690 
     96 H96        26.5284   24.4126   -2.8506 H         1 UNK         0.0788 
     97 H97        25.1724   25.1273   -3.7058 H         1 UNK         0.0788 
     98 H98        24.9607   23.6042   -2.8575 H         1 UNK         0.0788 
     99 H99        25.9971   23.8048   -0.4520 H         1 UNK         0.2993 
    100 H100       24.9449   24.1378    2.8534 H         1 UNK         0.0949 
    101 H101       23.5540   22.0194    1.1221 H         1 UNK         0.0767 
    102 H102       23.8144   21.9203    2.8648 H         1 UNK         0.0767 
    103 H103       22.7480   23.1471    2.2037 H         1 UNK         0.0767 
    104 H104       25.9946   21.8661    1.3962 H         1 UNK         0.3013 
    105 H105       29.3252   27.0091    1.3323 H         1 UNK         0.3121 
    106 H106       31.6475   27.5769    2.8561 H         1 UNK         0.0774 
    107 H107       30.5988   26.1393    4.5698 H         1 UNK         0.0815 
    108 H108       29.0302   26.2748    3.7829 H         1 UNK         0.0815 
    109 H109       30.3535   25.4386    2.9784 H         1 UNK         0.0815 
    110 H110       28.3601   28.9117    2.9785 H         1 UNK         0.2987 
    111 H111       28.7459   30.4212    5.4338 H         1 UNK         0.0949 
    112 H112       26.5939   30.6481    3.2562 H         1 UNK         0.0806 
    113 H113       26.4773   29.6838    4.7276 H         1 UNK         0.0806 
    114 H114       26.5559   31.4350    4.8263 H         1 UNK         0.0806 
    115 H115       28.8343   31.1212    1.9247 H         1 UNK         0.3010 
    116 H116       29.4098   33.8914    2.0927 H         1 UNK         0.0829 
    117 H117       30.1023   33.6297   -0.2889 H         1 UNK         0.0813 
    118 H118       30.1164   31.8805   -0.1129 H         1 UNK         0.0813 
    119 H119       28.6016   32.7698    0.0227 H         1 UNK         0.0813 
    120 H120       31.6341   31.0691    1.8728 H         1 UNK         0.3038 
    121 H121       34.0497   32.6382    2.0062 H         1 UNK         0.0769 
    122 H122       35.1117   30.3875    2.2890 H         1 UNK         0.0811 
    123 H123       33.9541   30.3761    0.9669 H         1 UNK         0.0811 
    124 H124       33.5251   29.6629    2.5209 H         1 UNK         0.0811 
    125 H125       31.8294   31.5638    4.4271 H         1 UNK         0.3204 
    126 H126       31.7267   31.4459    6.6280 H         1 UNK         0.0748 
    127 H127       33.0351   32.9785    8.0605 H         1 UNK         0.0771 
    128 H128       34.1397   33.3383    6.7432 H         1 UNK         0.0771 
    129 H129       32.4516   33.8371    6.6433 H         1 UNK         0.0771 
    130 H130       32.5570   29.2893    5.5721 H         1 UNK         0.2980 
    131 H131       35.1697   28.3875    6.1556 H         1 UNK         0.0545 
    132 H132       35.1159   26.4168    9.1369 H         1 UNK         0.3459 
    133 H133       35.8975   26.6148    7.5887 H         1 UNK         0.3459 
    134 H134       33.0394   26.2771    5.7449 H         1 UNK         0.0616 
    135 H135       33.1106   27.4991    4.5229 H         1 UNK         0.0616 
    136 H136       34.4834   27.5139    2.5932 H         1 UNK         0.0634 
    137 H137       35.7009   26.3296    2.2053 H         1 UNK         0.0634 
@<TRIPOS>BOND
     1    1    2 1    
     2    1   72 1    
     3    1   73 1    
     4    1   74 1    
     5    2    3 2    
     6    2    4 am   BACKBONE|DICT|INTERRES
     7    4    5 1    
     8    4   75 1    
     9    5    6 1    
    10    5   35 1    
    11    5   76 1    
    12    6    7 1    
    13    6   77 1    
    14    6   78 1    
    15    7    8 1    
    16    8    9 1    
    17    8   79 1    
    18    8   80 1    
    19    9   10 ar   
    20    9   14 ar   
    21   10   11 ar   
    22   10   81 1    
    23   11   12 ar   
    24   11   71 1    
    25   12   13 ar   
    26   12   82 1    
    27   13   14 ar   
    28   13   15 1    
    29   14   83 1    
    30   15   16 1    
    31   15   84 1    
    32   15   85 1    
    33   16   17 1    
    34   17   18 1    
    35   17   86 1    
    36   17   87 1    
    37   18   19 1    
    38   18   37 1    
    39   18   88 1    
    40   19   20 am   BACKBONE|DICT|INTERRES
    41   19   89 1    
    42   20   21 2    
    43   20   22 1    
    44   22   23 1    
    45   22   24 1    
    46   22   90 1    
    47   23   91 1    
    48   23   92 1    
    49   23   93 1    
    50   24   25 am   BACKBONE|DICT|INTERRES
    51   24   94 1    
    52   25   26 2    
    53   25   27 1    
    54   27   28 1    
    55   27   29 1    
    56   27   95 1    
    57   28   96 1    
    58   28   97 1    
    59   28   98 1    
    60   29   30 am   BACKBONE|DICT|INTERRES
    61   29   99 1    
    62   30   31 2    
    63   30   32 1    
    64   32   33 1    
    65   32   34 1    
    66   32  100 1    
    67   33  101 1    
    68   33  102 1    
    69   33  103 1    
    70   34   35 am   BACKBONE|DICT|INTERRES
    71   34  104 1    
    72   35   36 2    
    73   37   38 2    
    74   37   39 am   BACKBONE|DICT|INTERRES
    75   39   40 1    
    76   39  105 1    
    77   40   41 1    
    78   40   42 1    
    79   40  106 1    
    80   41  107 1    
    81   41  108 1    
    82   41  109 1    
    83   42   43 2    
    84   42   44 am   BACKBONE|DICT|INTERRES
    85   44   45 1    
    86   44  110 1    
    87   45   46 1    
    88   45   47 1    
    89   45  111 1    
    90   46  112 1    
    91   46  113 1    
    92   46  114 1    
    93   47   48 2    
    94   47   49 am   BACKBONE|DICT|INTERRES
    95   49   50 1    
    96   49  115 1    
    97   50   51 1    
    98   50   52 1    
    99   50  116 1    
   100   51  117 1    
   101   51  118 1    
   102   51  119 1    
   103   52   53 2    
   104   52   54 am   BACKBONE|DICT|INTERRES
   105   54   55 1    
   106   54  120 1    
   107   55   56 1    
   108   55   57 1    
   109   55  121 1    
   110   56  122 1    
   111   56  123 1    
   112   56  124 1    
   113   57   58 2    
   114   57   59 am   BACKBONE|DICT|INTERRES
   115   59   60 1    
   116   59  125 1    
   117   60   61 1    
   118   60   62 1    
   119   60  126 1    
   120   61  127 1    
   121   61  128 1    
   122   61  129 1    
   123   62   63 2    
   124   62   64 am   BACKBONE|DICT|INTERRES
   125   64   65 1    
   126   64  130 1    
   127   65   66 1    
   128   65   69 1    
   129   65  131 1    
   130   66   67 am   BACKBONE|DICT|INTERRES
   131   66   68 2    
   132   67  132 1    
   133   67  133 1    
   134   69   70 1    
   135   69  134 1    
   136   69  135 1    
   137   70   71 1    
   138   71  136 1    
   139   71  137 1    
@<TRIPOS>SUBSTRUCTURE
     1 UNK         1 GROUP             0       ****    0 ROOT    
