@<TRIPOS>MOLECULE
3R136
137   139    1
SMALL
USER_CHARGES


@<TRIPOS>ATOM
      1 CA         25.5899   27.0132    3.7494 C.3       0 UNK        -0.1979 
      2 C          25.9054   25.6438    3.1682 C.2       0 UNK         0.4864 
      3 O          24.9931   24.8411    2.9612 O.2       0 UNK        -0.5359 
      4 N          27.1892   25.3677    2.8998 N.am      1 UNK        -0.4318 
      5 CA         27.6722   24.1145    2.3168 C.3       1 UNK         0.0824 
      6 C6         29.2153   24.0424    2.3328 C.3       12 UNK        -0.0944 
      7 S7         29.8311   22.3493    2.0471 S.3       12 UNK        -0.2672 
      8 C8         31.5966   22.5303    2.4731 C.3       12 UNK         0.0333 
      9 C9         32.3256   23.5883    1.6481 C.ar      12 UNK        -0.0807 
     10 C10        33.2394   24.4435    2.2723 C.ar      12 UNK        -0.0894 
     11 C11        33.9178   25.4208    1.5377 C.ar      12 UNK        -0.0804 
     12 C12        33.6714   25.5481    0.1680 C.ar      12 UNK        -0.0824 
     13 C13        32.7593   24.7015   -0.4686 C.ar      12 UNK        -0.0762 
     14 C14        32.1052   23.7126    0.2713 C.ar      12 UNK        -0.0782 
     15 C15        32.4704   24.8618   -1.9537 C.3       12 UNK         0.0230 
     16 S16        31.5440   26.3897   -2.3061 S.3       12 UNK        -0.2608 
     17 C17        29.9731   26.0948   -1.4225 C.3       12 UNK        -0.0989 
     18 CA         29.0833   27.3677   -1.3723 C.3       5 UNK         0.0716 
     19 N          27.6651   27.0304   -1.5580 N.am      5 UNK        -0.4135 
     20 C          26.7971   27.7788   -2.2538 C.2       4 UNK         0.5031 
     21 O          27.0861   28.8723   -2.7413 O.2       4 UNK        -0.5229 
     22 CA         25.3749   27.2414   -2.4658 C.3       4 UNK         0.0329 
     23 CB         25.2966   26.4412   -3.7795 C.3       4 UNK        -0.2001 
     24 N          24.8676   26.4244   -1.3585 N.am      4 UNK        -0.4303 
     25 C          23.5632   26.3150   -1.0559 C.2       3 UNK         0.5044 
     26 O          22.6844   26.9894   -1.5970 O.2       3 UNK        -0.5152 
     27 CA         23.1596   25.2763    0.0153 C.3       3 UNK         0.0319 
     28 CB         21.7202   24.7514   -0.1731 C.3       3 UNK        -0.2001 
     29 N          24.1054   24.1613    0.1371 N.am      3 UNK        -0.4354 
     30 C          24.4912   23.3024   -0.8238 C.2       2 UNK         0.4964 
     31 O          23.9682   23.2465   -1.9374 O.2       2 UNK        -0.5047 
     32 CA         25.6854   22.3716   -0.5086 C.3       2 UNK         0.0288 
     33 CB         26.6279   22.2172   -1.7223 C.3       2 UNK        -0.2113 
     34 N          26.4546   22.7560    0.6850 N.am      2 UNK        -0.4145 
     35 C          27.0862   23.9200    0.9031 C.2       1 UNK         0.5006 
     36 O          27.1454   24.8402    0.0793 O.2       1 UNK        -0.5103 
     37 C          29.3356   28.2257   -0.1078 C.2       5 UNK         0.5055 
     38 O          30.4857   28.5775    0.1569 O.2       5 UNK        -0.5220 
     39 N          28.2637   28.5693    0.6259 N.am      6 UNK        -0.4450 
     40 CA         28.2279   29.3582    1.8647 C.3       6 UNK         0.0367 
     41 CB         28.8466   30.7596    1.6591 C.3       6 UNK        -0.1929 
     42 C          28.8193   28.6087    3.0752 C.2       6 UNK         0.5070 
     43 O          29.1135   27.4143    2.9905 O.2       6 UNK        -0.5237 
     44 N          28.8808   29.2991    4.2183 N.am      7 UNK        -0.4739 
     45 CA         29.3666   28.7648    5.4914 C.3       7 UNK         0.0276 
     46 CB         28.6658   29.5233    6.6322 C.3       7 UNK        -0.1927 
     47 C          30.8910   28.9074    5.6153 C.2       7 UNK         0.5013 
     48 O          31.5001   29.7001    4.8934 O.2       7 UNK        -0.5193 
     49 N          31.4730   28.2023    6.5967 N.am      8 UNK        -0.4253 
     50 CA         32.9048   28.2284    6.9302 C.3       8 UNK         0.0242 
     51 CB         33.1755   27.2619    8.0937 C.3       8 UNK        -0.2000 
     52 C          33.4679   29.6276    7.2525 C.2       8 UNK         0.4948 
     53 O          34.6568   29.8633    7.0370 O.2       8 UNK        -0.5275 
     54 N          32.6026   30.5431    7.7115 N.am      9 UNK        -0.4246 
     55 CA         32.9046   31.9631    7.9046 C.3       9 UNK         0.0261 
     56 CB         31.7245   32.6370    8.6235 C.3       9 UNK        -0.1959 
     57 C          33.2359   32.7107    6.5972 C.2       9 UNK         0.5033 
     58 O          33.9903   33.6832    6.6472 O.2       9 UNK        -0.5390 
     59 N          32.6863   32.2548    5.4607 N.am      10 UNK        -0.4215 
     60 CA         33.0147   32.7672    4.1288 C.3       10 UNK         0.0240 
     61 CB         31.8224   32.5594    3.1810 C.3       10 UNK        -0.1982 
     62 C          34.2784   32.0968    3.5664 C.2       10 UNK         0.4970 
     63 O          35.0439   32.7607    2.8662 O.2       10 UNK        -0.4916 
     64 N          34.4795   30.8094    3.8839 N.am      11 UNK        -0.4279 
     65 CA         35.6874   30.0414    3.5426 C.3       11 UNK         0.1003 
     66 C          36.9660   30.5901    4.2333 C.2       11 UNK         0.5709 
     67 N          36.9160   30.8890    5.5259 N.am      11 UNK        -0.7358 
     68 O          38.0035   30.7443    3.5933 O.2       11 UNK        -0.4999 
     69 C69        35.5295   28.5290    3.8449 C.3       12 UNK        -0.0954 
     70 S70        34.1105   27.7612    2.9950 S.3       12 UNK        -0.2268 
     71 C71        34.9237   26.3300    2.2243 C.3       12 UNK         0.0203 
     72 H72        26.4193   27.3932    4.3449 H         1 UNK         0.0888 
     73 H73        24.7155   26.9570    4.3974 H         1 UNK         0.0888 
     74 H74        25.3771   27.7226    2.9506 H         1 UNK         0.0888 
     75 H75        27.8992   26.0894    3.0234 H         1 UNK         0.3017 
     76 H76        27.2951   23.3175    2.9618 H         1 UNK         0.0873 
     77 H77        29.5903   24.3698    3.3042 H         1 UNK         0.0745 
     78 H78        29.6476   24.7256    1.6009 H         1 UNK         0.0745 
     79 H79        31.6702   22.7571    3.5380 H         1 UNK         0.0705 
     80 H80        32.0927   21.5702    2.3263 H         1 UNK         0.0705 
     81 H81        33.4253   24.3525    3.3339 H         1 UNK         0.1334 
     82 H82        34.1795   26.3135   -0.4028 H         1 UNK         0.1417 
     83 H83        31.4043   23.0525   -0.2212 H         1 UNK         0.1562 
     84 H84        31.9120   24.0074   -2.3396 H         1 UNK         0.0748 
     85 H85        33.4128   24.8849   -2.5028 H         1 UNK         0.0748 
     86 H86        30.1716   25.7146   -0.4202 H         1 UNK         0.0940 
     87 H87        29.4630   25.2855   -1.9482 H         1 UNK         0.0940 
     88 H88        29.3758   28.0040   -2.2106 H         1 UNK         0.0703 
     89 H89        27.3749   26.1534   -1.1304 H         1 UNK         0.3081 
     90 H90        24.7391   28.1238   -2.5692 H         1 UNK         0.0719 
     91 H91        25.8742   25.5177   -3.7215 H         1 UNK         0.0809 
     92 H92        24.2675   26.1749   -4.0217 H         1 UNK         0.0809 
     93 H93        25.6852   27.0207   -4.6182 H         1 UNK         0.0809 
     94 H94        25.5303   25.8431   -0.8588 H         1 UNK         0.2990 
     95 H95        23.1940   25.8045    0.9691 H         1 UNK         0.0690 
     96 H96        21.4577   24.0287    0.5994 H         1 UNK         0.0788 
     97 H97        21.5886   24.2698   -1.1425 H         1 UNK         0.0788 
     98 H98        20.9949   25.5637   -0.1131 H         1 UNK         0.0788 
     99 H99        24.5824   24.1194    1.0322 H         1 UNK         0.2993 
    100 H100       25.2536   21.3929   -0.2942 H         1 UNK         0.0949 
    101 H101       26.1034   21.7846   -2.5752 H         1 UNK         0.0767 
    102 H102       27.0351   23.1760   -2.0450 H         1 UNK         0.0767 
    103 H103       27.4654   21.5584   -1.4924 H         1 UNK         0.0767 
    104 H104       26.4469   22.0776    1.4347 H         1 UNK         0.3013 
    105 H105       27.3740   28.2032    0.3220 H         1 UNK         0.3121 
    106 H106       27.1696   29.4996    2.0885 H         1 UNK         0.0774 
    107 H107       28.4403   31.2437    0.7711 H         1 UNK         0.0815 
    108 H108       29.9292   30.7111    1.5440 H         1 UNK         0.0815 
    109 H109       28.6395   31.4196    2.5016 H         1 UNK         0.0815 
    110 H110       28.6504   30.2816    4.2052 H         1 UNK         0.2987 
    111 H111       29.1115   27.7048    5.5624 H         1 UNK         0.0949 
    112 H112       28.9148   30.5855    6.6260 H         1 UNK         0.0806 
    113 H113       27.5816   29.4347    6.5576 H         1 UNK         0.0806 
    114 H114       28.9502   29.1272    7.6079 H         1 UNK         0.0806 
    115 H115       30.8968   27.5901    7.1566 H         1 UNK         0.3010 
    116 H116       33.4394   27.8605    6.0535 H         1 UNK         0.0829 
    117 H117       32.8856   26.2421    7.8398 H         1 UNK         0.0813 
    118 H118       34.2374   27.2405    8.3437 H         1 UNK         0.0813 
    119 H119       32.6345   27.5525    8.9952 H         1 UNK         0.0813 
    120 H120       31.6496   30.2547    7.8752 H         1 UNK         0.3038 
    121 H121       33.7832   32.0301    8.5499 H         1 UNK         0.0769 
    122 H122       30.8075   32.5821    8.0353 H         1 UNK         0.0811 
    123 H123       31.9312   33.6926    8.8063 H         1 UNK         0.0811 
    124 H124       31.5322   32.1749    9.5920 H         1 UNK         0.0811 
    125 H125       32.1104   31.4170    5.4842 H         1 UNK         0.3204 
    126 H126       33.2045   33.8408    4.1956 H         1 UNK         0.0748 
    127 H127       30.9151   33.0181    3.5742 H         1 UNK         0.0771 
    128 H128       32.0183   33.0084    2.2065 H         1 UNK         0.0771 
    129 H129       31.6201   31.5016    3.0141 H         1 UNK         0.0771 
    130 H130       33.7809   30.3236    4.4280 H         1 UNK         0.2980 
    131 H131       35.8366   30.1459    2.4661 H         1 UNK         0.0545 
    132 H132       37.7368   31.2487    5.9852 H         1 UNK         0.3459 
    133 H133       36.0800   30.6801    6.0654 H         1 UNK         0.3459 
    134 H134       36.4407   28.0010    3.5576 H         1 UNK         0.0616 
    135 H135       35.4170   28.3593    4.9158 H         1 UNK         0.0616 
    136 H136       35.4650   25.7677    2.9869 H         1 UNK         0.0634 
    137 H137       35.6695   26.6810    1.5092 H         1 UNK         0.0634 
@<TRIPOS>BOND
     1    1    2 1    
     2    1   72 1    
     3    1   73 1    
     4    1   74 1    
     5    2    3 2    
     6    2    4 am   BACKBONE|DICT|INTERRES
     7    4    5 1    
     8    4   75 1    
     9    5    6 1    
    10    5   35 1    
    11    5   76 1    
    12    6    7 1    
    13    6   77 1    
    14    6   78 1    
    15    7    8 1    
    16    8    9 1    
    17    8   79 1    
    18    8   80 1    
    19    9   10 ar   
    20    9   14 ar   
    21   10   11 ar   
    22   10   81 1    
    23   11   12 ar   
    24   11   71 1    
    25   12   13 ar   
    26   12   82 1    
    27   13   14 ar   
    28   13   15 1    
    29   14   83 1    
    30   15   16 1    
    31   15   84 1    
    32   15   85 1    
    33   16   17 1    
    34   17   18 1    
    35   17   86 1    
    36   17   87 1    
    37   18   19 1    
    38   18   37 1    
    39   18   88 1    
    40   19   20 am   BACKBONE|DICT|INTERRES
    41   19   89 1    
    42   20   21 2    
    43   20   22 1    
    44   22   23 1    
    45   22   24 1    
    46   22   90 1    
    47   23   91 1    
    48   23   92 1    
    49   23   93 1    
    50   24   25 am   BACKBONE|DICT|INTERRES
    51   24   94 1    
    52   25   26 2    
    53   25   27 1    
    54   27   28 1    
    55   27   29 1    
    56   27   95 1    
    57   28   96 1    
    58   28   97 1    
    59   28   98 1    
    60   29   30 am   BACKBONE|DICT|INTERRES
    61   29   99 1    
    62   30   31 2    
    63   30   32 1    
    64   32   33 1    
    65   32   34 1    
    66   32  100 1    
    67   33  101 1    
    68   33  102 1    
    69   33  103 1    
    70   34   35 am   BACKBONE|DICT|INTERRES
    71   34  104 1    
    72   35   36 2    
    73   37   38 2    
    74   37   39 am   BACKBONE|DICT|INTERRES
    75   39   40 1    
    76   39  105 1    
    77   40   41 1    
    78   40   42 1    
    79   40  106 1    
    80   41  107 1    
    81   41  108 1    
    82   41  109 1    
    83   42   43 2    
    84   42   44 am   BACKBONE|DICT|INTERRES
    85   44   45 1    
    86   44  110 1    
    87   45   46 1    
    88   45   47 1    
    89   45  111 1    
    90   46  112 1    
    91   46  113 1    
    92   46  114 1    
    93   47   48 2    
    94   47   49 am   BACKBONE|DICT|INTERRES
    95   49   50 1    
    96   49  115 1    
    97   50   51 1    
    98   50   52 1    
    99   50  116 1    
   100   51  117 1    
   101   51  118 1    
   102   51  119 1    
   103   52   53 2    
   104   52   54 am   BACKBONE|DICT|INTERRES
   105   54   55 1    
   106   54  120 1    
   107   55   56 1    
   108   55   57 1    
   109   55  121 1    
   110   56  122 1    
   111   56  123 1    
   112   56  124 1    
   113   57   58 2    
   114   57   59 am   BACKBONE|DICT|INTERRES
   115   59   60 1    
   116   59  125 1    
   117   60   61 1    
   118   60   62 1    
   119   60  126 1    
   120   61  127 1    
   121   61  128 1    
   122   61  129 1    
   123   62   63 2    
   124   62   64 am   BACKBONE|DICT|INTERRES
   125   64   65 1    
   126   64  130 1    
   127   65   66 1    
   128   65   69 1    
   129   65  131 1    
   130   66   67 am   BACKBONE|DICT|INTERRES
   131   66   68 2    
   132   67  132 1    
   133   67  133 1    
   134   69   70 1    
   135   69  134 1    
   136   69  135 1    
   137   70   71 1    
   138   71  136 1    
   139   71  137 1    
@<TRIPOS>SUBSTRUCTURE
     1 UNK         1 GROUP             0       ****    0 ROOT    
