@<TRIPOS>MOLECULE
3R136
137   139    1
SMALL
USER_CHARGES


@<TRIPOS>ATOM
      1 CA         33.2936   26.6973   -2.9558 C.3       0 UNK        -0.1979 
      2 C          32.0584   26.9883   -2.1170 C.2       0 UNK         0.4864 
      3 O          31.1456   27.6655   -2.5898 O.2       0 UNK        -0.5359 
      4 N          32.0327   26.4907   -0.8730 N.am      1 UNK        -0.4318 
      5 CA         30.9251   26.6299    0.0809 C.3       1 UNK         0.0824 
      6 C6         31.3059   26.1758    1.5113 C.3       12 UNK        -0.0944 
      7 S7         32.2507   24.6093    1.5648 S.3       12 UNK        -0.2672 
      8 C8         31.0211   23.4251    2.2025 C.3       12 UNK         0.0333 
      9 C9         30.6123   23.7324    3.6352 C.ar      12 UNK        -0.0807 
     10 C10        31.5810   23.8114    4.6397 C.ar      12 UNK        -0.0894 
     11 C11        31.2238   24.1228    5.9544 C.ar      12 UNK        -0.0804 
     12 C12        29.8748   24.3142    6.2670 C.ar      12 UNK        -0.0824 
     13 C13        28.8931   24.2204    5.2742 C.ar      12 UNK        -0.0762 
     14 C14        29.2670   23.9312    3.9588 C.ar      12 UNK        -0.0782 
     15 C15        27.4313   24.4323    5.6321 C.3       12 UNK         0.0230 
     16 S16        27.0020   26.2000    5.5984 S.3       12 UNK        -0.2608 
     17 C17        26.0400   26.3610    4.0554 C.3       12 UNK        -0.0989 
     18 CA         26.8793   26.7768    2.8144 C.3       5 UNK         0.0716 
     19 N          26.1747   26.4914    1.5616 N.am      5 UNK        -0.4135 
     20 C          25.0307   27.0590    1.1438 C.2       4 UNK         0.5031 
     21 O          24.4037   27.9038    1.7838 O.2       4 UNK        -0.5229 
     22 CA         24.4782   26.6149   -0.2232 C.3       4 UNK         0.0329 
     23 CB         24.9377   27.5895   -1.3202 C.3       4 UNK        -0.2001 
     24 N          24.8718   25.2571   -0.5987 N.am      4 UNK        -0.4303 
     25 C          24.5061   24.1312    0.0335 C.2       3 UNK         0.5044 
     26 O          23.6924   24.0955    0.9566 O.2       3 UNK        -0.5152 
     27 CA         25.1846   22.8253   -0.4285 C.3       3 UNK         0.0319 
     28 CB         24.2372   22.0131   -1.3260 C.3       3 UNK        -0.2001 
     29 N          26.4487   23.0518   -1.1405 N.am      3 UNK        -0.4354 
     30 C          27.5527   23.5749   -0.5878 C.2       2 UNK         0.4964 
     31 O          27.6550   23.8085    0.6190 O.2       2 UNK        -0.5047 
     32 CA         28.7038   23.9155   -1.5591 C.3       2 UNK         0.0288 
     33 CB         28.1977   24.5761   -2.8623 C.3       2 UNK        -0.2113 
     34 N          29.7544   24.7527   -0.9666 N.am      2 UNK        -0.4145 
     35 C          29.6240   25.9646   -0.4019 C.2       1 UNK         0.5006 
     36 O          28.5578   26.5698   -0.2612 O.2       1 UNK        -0.5103 
     37 C          27.3873   28.2373    2.8397 C.2       5 UNK         0.5055 
     38 O          27.1232   28.9742    3.7917 O.2       5 UNK        -0.5220 
     39 N          28.0867   28.6460    1.7694 N.am      6 UNK        -0.4450 
     40 CA         28.6431   29.9927    1.6279 C.3       6 UNK         0.0367 
     41 CB         28.9974   30.2755    0.1578 C.3       6 UNK        -0.1929 
     42 C          29.8474   30.2048    2.5618 C.2       6 UNK         0.5070 
     43 O          30.9567   29.7504    2.2654 O.2       6 UNK        -0.5237 
     44 N          29.6118   30.9115    3.6740 N.am      7 UNK        -0.4739 
     45 CA         30.6265   31.2860    4.6659 C.3       7 UNK         0.0276 
     46 CB         29.9314   31.8054    5.9335 C.3       7 UNK        -0.1927 
     47 C          31.6533   32.3055    4.1431 C.2       7 UNK         0.5013 
     48 O          32.7447   32.4027    4.7012 O.2       7 UNK        -0.5193 
     49 N          31.3043   33.0223    3.0659 N.am      8 UNK        -0.4253 
     50 CA         32.2180   33.8789    2.3093 C.3       8 UNK         0.0242 
     51 CB         31.4036   34.7793    1.3660 C.3       8 UNK        -0.2000 
     52 C          33.2672   33.0774    1.5156 C.2       8 UNK         0.4948 
     53 O          34.3547   33.6014    1.2714 O.2       8 UNK        -0.5275 
     54 N          32.9294   31.8394    1.1222 N.am      9 UNK        -0.4246 
     55 CA         33.8202   30.9386    0.3919 C.3       9 UNK         0.0261 
     56 CB         32.9996   30.0410   -0.5445 C.3       9 UNK        -0.1959 
     57 C          34.6780   30.0944    1.3450 C.2       9 UNK         0.5033 
     58 O          35.8791   29.9638    1.1033 O.2       9 UNK        -0.5390 
     59 N          34.0663   29.5490    2.4063 N.am      10 UNK        -0.4215 
     60 CA         34.7608   28.7734    3.4350 C.3       10 UNK         0.0240 
     61 CB         34.9779   27.3121    2.9868 C.3       10 UNK        -0.1982 
     62 C          34.0334   28.8986    4.7772 C.2       10 UNK         0.4970 
     63 O          34.4165   29.7421    5.5875 O.2       10 UNK        -0.4916 
     64 N          33.0200   28.0550    4.9978 N.am      11 UNK        -0.4279 
     65 CA         32.2937   27.9380    6.2733 C.3       11 UNK         0.1003 
     66 C          30.7734   27.6626    6.1272 C.2       11 UNK         0.5709 
     67 N          30.2059   27.6660    4.9279 N.am      11 UNK        -0.7358 
     68 O          30.0835   27.4911    7.1285 O.2       11 UNK        -0.4999 
     69 C69        33.0063   26.9941    7.2881 C.3       12 UNK        -0.0954 
     70 S70        33.6119   25.4121    6.5998 S.3       12 UNK        -0.2268 
     71 C71        32.2938   24.2277    7.0344 C.3       12 UNK         0.0203 
     72 H72        34.0346   26.1186   -2.4043 H         1 UNK         0.0888 
     73 H73        33.0172   26.1342   -3.8468 H         1 UNK         0.0888 
     74 H74        33.7598   27.6299   -3.2726 H         1 UNK         0.0888 
     75 H75        32.8125   25.9414   -0.5379 H         1 UNK         0.3017 
     76 H76        30.7068   27.6937    0.1438 H         1 UNK         0.0873 
     77 H77        30.4274   26.1136    2.1566 H         1 UNK         0.0745 
     78 H78        31.9276   26.9487    1.9616 H         1 UNK         0.0745 
     79 H79        30.1549   23.4143    1.5411 H         1 UNK         0.0705 
     80 H80        31.4480   22.4221    2.1667 H         1 UNK         0.0705 
     81 H81        32.6215   23.6520    4.3915 H         1 UNK         0.1334 
     82 H82        29.5863   24.5543    7.2813 H         1 UNK         0.1417 
     83 H83        28.5111   23.8599    3.1881 H         1 UNK         0.1562 
     84 H84        27.2417   24.0481    6.6355 H         1 UNK         0.0748 
     85 H85        26.7860   23.8584    4.9658 H         1 UNK         0.0748 
     86 H86        25.2391   27.0813    4.2320 H         1 UNK         0.0940 
     87 H87        25.5328   25.4148    3.8614 H         1 UNK         0.0940 
     88 H88        27.7713   26.1502    2.7907 H         1 UNK         0.0703 
     89 H89        26.6404   25.8348    0.9456 H         1 UNK         0.3081 
     90 H90        23.3881   26.6448   -0.1658 H         1 UNK         0.0719 
     91 H91        24.6358   28.6113   -1.0853 H         1 UNK         0.0809 
     92 H92        26.0233   27.5892   -1.4318 H         1 UNK         0.0809 
     93 H93        24.4991   27.3382   -2.2860 H         1 UNK         0.0809 
     94 H94        25.5329   25.1752   -1.3563 H         1 UNK         0.2990 
     95 H95        25.4015   22.2367    0.4655 H         1 UNK         0.0690 
     96 H96        24.6752   21.0531   -1.6001 H         1 UNK         0.0788 
     97 H97        23.9929   22.5473   -2.2452 H         1 UNK         0.0788 
     98 H98        23.2979   21.8030   -0.8122 H         1 UNK         0.0788 
     99 H99        26.4464   22.8648   -2.1332 H         1 UNK         0.2993 
    100 H100       29.1780   22.9675   -1.8176 H         1 UNK         0.0949 
    101 H101       27.5684   23.9021   -3.4440 H         1 UNK         0.0767 
    102 H102       27.6204   25.4796   -2.6611 H         1 UNK         0.0767 
    103 H103       29.0308   24.8584   -3.5067 H         1 UNK         0.0767 
    104 H104       30.6837   24.3574   -0.9845 H         1 UNK         0.3013 
    105 H105       28.2473   27.9900    1.0092 H         1 UNK         0.3121 
    106 H106       27.8634   30.7060    1.9049 H         1 UNK         0.0774 
    107 H107       29.3461   31.3015    0.0347 H         1 UNK         0.0815 
    108 H108       29.7838   29.6260   -0.2193 H         1 UNK         0.0815 
    109 H109       28.1282   30.1516   -0.4884 H         1 UNK         0.0815 
    110 H110       28.6597   31.1866    3.8748 H         1 UNK         0.2987 
    111 H111       31.1869   30.3888    4.9286 H         1 UNK         0.0949 
    112 H112       29.2721   31.0487    6.3599 H         1 UNK         0.0806 
    113 H113       30.6620   32.0651    6.7009 H         1 UNK         0.0806 
    114 H114       29.3370   32.6975    5.7326 H         1 UNK         0.0806 
    115 H115       30.3712   32.9053    2.6991 H         1 UNK         0.3010 
    116 H116       32.7540   34.5167    3.0159 H         1 UNK         0.0829 
    117 H117       30.8362   34.1972    0.6386 H         1 UNK         0.0813 
    118 H118       32.0580   35.4496    0.8068 H         1 UNK         0.0813 
    119 H119       30.7017   35.4032    1.9197 H         1 UNK         0.0813 
    120 H120       32.0331   31.4612    1.3991 H         1 UNK         0.3038 
    121 H121       34.4957   31.5292   -0.2312 H         1 UNK         0.0769 
    122 H122       32.4051   30.6290   -1.2437 H         1 UNK         0.0811 
    123 H123       32.3221   29.3925    0.0084 H         1 UNK         0.0811 
    124 H124       33.6556   29.4007   -1.1350 H         1 UNK         0.0811 
    125 H125       33.0708   29.6998    2.5356 H         1 UNK         0.3204 
    126 H126       35.7481   29.2142    3.5925 H         1 UNK         0.0748 
    127 H127       34.0504   26.8180    2.7076 H         1 UNK         0.0771 
    128 H128       35.6468   27.2606    2.1276 H         1 UNK         0.0771 
    129 H129       35.4349   26.7230    3.7834 H         1 UNK         0.0771 
    130 H130       32.7984   27.3545    4.3065 H         1 UNK         0.2980 
    131 H131       32.2958   28.9288    6.7317 H         1 UNK         0.0545 
    132 H132       30.7195   27.9014    4.0963 H         1 UNK         0.3459 
    133 H133       29.2127   27.4964    4.8915 H         1 UNK         0.3459 
    134 H134       32.3878   26.8035    8.1664 H         1 UNK         0.0616 
    135 H135       33.8857   27.5111    7.6744 H         1 UNK         0.0616 
    136 H136       32.7456   23.2436    7.1649 H         1 UNK         0.0634 
    137 H137       31.8599   24.4951    7.9989 H         1 UNK         0.0634 
@<TRIPOS>BOND
     1    1    2 1    
     2    1   72 1    
     3    1   73 1    
     4    1   74 1    
     5    2    3 2    
     6    2    4 am   BACKBONE|DICT|INTERRES
     7    4    5 1    
     8    4   75 1    
     9    5    6 1    
    10    5   35 1    
    11    5   76 1    
    12    6    7 1    
    13    6   77 1    
    14    6   78 1    
    15    7    8 1    
    16    8    9 1    
    17    8   79 1    
    18    8   80 1    
    19    9   10 ar   
    20    9   14 ar   
    21   10   11 ar   
    22   10   81 1    
    23   11   12 ar   
    24   11   71 1    
    25   12   13 ar   
    26   12   82 1    
    27   13   14 ar   
    28   13   15 1    
    29   14   83 1    
    30   15   16 1    
    31   15   84 1    
    32   15   85 1    
    33   16   17 1    
    34   17   18 1    
    35   17   86 1    
    36   17   87 1    
    37   18   19 1    
    38   18   37 1    
    39   18   88 1    
    40   19   20 am   BACKBONE|DICT|INTERRES
    41   19   89 1    
    42   20   21 2    
    43   20   22 1    
    44   22   23 1    
    45   22   24 1    
    46   22   90 1    
    47   23   91 1    
    48   23   92 1    
    49   23   93 1    
    50   24   25 am   BACKBONE|DICT|INTERRES
    51   24   94 1    
    52   25   26 2    
    53   25   27 1    
    54   27   28 1    
    55   27   29 1    
    56   27   95 1    
    57   28   96 1    
    58   28   97 1    
    59   28   98 1    
    60   29   30 am   BACKBONE|DICT|INTERRES
    61   29   99 1    
    62   30   31 2    
    63   30   32 1    
    64   32   33 1    
    65   32   34 1    
    66   32  100 1    
    67   33  101 1    
    68   33  102 1    
    69   33  103 1    
    70   34   35 am   BACKBONE|DICT|INTERRES
    71   34  104 1    
    72   35   36 2    
    73   37   38 2    
    74   37   39 am   BACKBONE|DICT|INTERRES
    75   39   40 1    
    76   39  105 1    
    77   40   41 1    
    78   40   42 1    
    79   40  106 1    
    80   41  107 1    
    81   41  108 1    
    82   41  109 1    
    83   42   43 2    
    84   42   44 am   BACKBONE|DICT|INTERRES
    85   44   45 1    
    86   44  110 1    
    87   45   46 1    
    88   45   47 1    
    89   45  111 1    
    90   46  112 1    
    91   46  113 1    
    92   46  114 1    
    93   47   48 2    
    94   47   49 am   BACKBONE|DICT|INTERRES
    95   49   50 1    
    96   49  115 1    
    97   50   51 1    
    98   50   52 1    
    99   50  116 1    
   100   51  117 1    
   101   51  118 1    
   102   51  119 1    
   103   52   53 2    
   104   52   54 am   BACKBONE|DICT|INTERRES
   105   54   55 1    
   106   54  120 1    
   107   55   56 1    
   108   55   57 1    
   109   55  121 1    
   110   56  122 1    
   111   56  123 1    
   112   56  124 1    
   113   57   58 2    
   114   57   59 am   BACKBONE|DICT|INTERRES
   115   59   60 1    
   116   59  125 1    
   117   60   61 1    
   118   60   62 1    
   119   60  126 1    
   120   61  127 1    
   121   61  128 1    
   122   61  129 1    
   123   62   63 2    
   124   62   64 am   BACKBONE|DICT|INTERRES
   125   64   65 1    
   126   64  130 1    
   127   65   66 1    
   128   65   69 1    
   129   65  131 1    
   130   66   67 am   BACKBONE|DICT|INTERRES
   131   66   68 2    
   132   67  132 1    
   133   67  133 1    
   134   69   70 1    
   135   69  134 1    
   136   69  135 1    
   137   70   71 1    
   138   71  136 1    
   139   71  137 1    
@<TRIPOS>SUBSTRUCTURE
     1 UNK         1 GROUP             0       ****    0 ROOT    
