@<TRIPOS>MOLECULE
3R136
137   139    1
SMALL
USER_CHARGES


@<TRIPOS>ATOM
      1 CA         31.6024   17.8538    1.4163 C.3       0 UNK        -0.1979 
      2 C          31.4795   19.2027    0.7235 C.2       0 UNK         0.4864 
      3 O          31.9451   19.3551   -0.4064 O.2       0 UNK        -0.5359 
      4 N          30.8520   20.1815    1.3896 N.am      1 UNK        -0.4318 
      5 CA         30.6410   21.5450    0.8850 C.3       1 UNK         0.0824 
      6 C6         30.4511   22.5602    2.0404 C.3       12 UNK        -0.0944 
      7 S7         29.0641   22.1604    3.1643 S.3       12 UNK        -0.2672 
      8 C8         27.8955   23.5141    2.8052 C.3       12 UNK         0.0333 
      9 C9         28.0841   24.7706    3.6540 C.ar      12 UNK        -0.0807 
     10 C10        29.3528   25.2370    4.0213 C.ar      12 UNK        -0.0894 
     11 C11        29.4946   26.4080    4.7708 C.ar      12 UNK        -0.0804 
     12 C12        28.3566   27.1164    5.1625 C.ar      12 UNK        -0.0824 
     13 C13        27.0861   26.6822    4.7787 C.ar      12 UNK        -0.0762 
     14 C14        26.9557   25.5050    4.0353 C.ar      12 UNK        -0.0782 
     15 C15        25.8627   27.5163    5.1267 C.3       12 UNK         0.0230 
     16 S16        25.8010   29.0483    4.1392 S.3       12 UNK        -0.2608 
     17 C17        25.6378   28.3974    2.4411 C.3       12 UNK        -0.0989 
     18 CA         26.9945   28.3139    1.6931 C.3       5 UNK         0.0716 
     19 N          26.9223   27.3490    0.5947 N.am      5 UNK        -0.4135 
     20 C          27.9616   26.8865   -0.1099 C.2       4 UNK         0.5031 
     21 O          29.1366   27.1601    0.1392 O.2       4 UNK        -0.5229 
     22 CA         27.6171   25.9439   -1.2797 C.3       4 UNK         0.0329 
     23 CB         28.8341   25.6448   -2.1746 C.3       4 UNK        -0.2001 
     24 N          27.0421   24.6811   -0.8058 N.am      4 UNK        -0.4303 
     25 C          25.7732   24.5233   -0.3960 C.2       3 UNK         0.5044 
     26 O          24.9601   25.4502   -0.3794 O.2       3 UNK        -0.5152 
     27 CA         25.3312   23.1373    0.1245 C.3       3 UNK         0.0319 
     28 CB         23.8974   22.7784   -0.3217 C.3       3 UNK        -0.2001 
     29 N          26.2656   22.0397   -0.1635 N.am      3 UNK        -0.4354 
     30 C          26.5999   21.5458   -1.3658 C.2       2 UNK         0.4964 
     31 O          26.1253   21.9469   -2.4296 O.2       2 UNK        -0.5047 
     32 CA         27.6648   20.4276   -1.3693 C.3       2 UNK         0.0288 
     33 CB         28.3097   20.2310   -2.7582 C.3       2 UNK        -0.2113 
     34 N          28.7134   20.5907   -0.3487 N.am      2 UNK        -0.4145 
     35 C          29.5195   21.6526   -0.1744 C.2       1 UNK         0.5006 
     36 O          29.3990   22.7037   -0.8039 O.2       1 UNK        -0.5103 
     37 C          27.4597   29.6940    1.1829 C.2       5 UNK         0.5055 
     38 O          27.0702   30.1036    0.0853 O.2       5 UNK        -0.5220 
     39 N          28.2649   30.3892    1.9911 N.am      6 UNK        -0.4450 
     40 CA         28.8266   31.7054    1.7062 C.3       6 UNK         0.0367 
     41 CB         30.0477   31.5691    0.7765 C.3       6 UNK        -0.1929 
     42 C          29.1982   32.3814    3.0322 C.2       6 UNK         0.5070 
     43 O          29.1623   31.7370    4.0839 O.2       6 UNK        -0.5237 
     44 N          29.5313   33.6747    2.9572 N.am      7 UNK        -0.4739 
     45 CA         29.9234   34.5033    4.0987 C.3       7 UNK         0.0276 
     46 CB         29.8910   35.9797    3.6697 C.3       7 UNK        -0.1927 
     47 C          31.3149   34.1411    4.6468 C.2       7 UNK         0.5013 
     48 O          32.1705   33.6597    3.8974 O.2       7 UNK        -0.5193 
     49 N          31.5233   34.4375    5.9385 N.am      8 UNK        -0.4253 
     50 CA         32.7653   34.2515    6.6972 C.3       8 UNK         0.0242 
     51 CB         33.8216   35.2937    6.2587 C.3       8 UNK        -0.2000 
     52 C          33.2512   32.7907    6.6355 C.2       8 UNK         0.4948 
     53 O          32.5834   31.9171    7.1910 O.2       8 UNK        -0.5275 
     54 N          34.3788   32.5565    5.9551 N.am      9 UNK        -0.4246 
     55 CA         34.9552   31.2379    5.6969 C.3       9 UNK         0.0261 
     56 CB         36.3022   31.1291    6.4361 C.3       9 UNK        -0.1959 
     57 C          35.1095   30.9695    4.1888 C.2       9 UNK         0.5033 
     58 O          35.8421   30.0481    3.8235 O.2       9 UNK        -0.5390 
     59 N          34.4288   31.7447    3.3251 N.am      10 UNK        -0.4215 
     60 CA         34.5147   31.6186    1.8611 C.3       10 UNK         0.0240 
     61 CB         33.7882   32.7988    1.1967 C.3       10 UNK        -0.1982 
     62 C          33.9825   30.2786    1.3180 C.2       10 UNK         0.4970 
     63 O          34.4006   29.8512    0.2416 O.2       10 UNK        -0.4916 
     64 N          33.0939   29.6386    2.0843 N.am      11 UNK        -0.4279 
     65 CA         32.5944   28.2759    1.8720 C.3       11 UNK         0.1003 
     66 C          33.6039   27.1450    2.2333 C.2       11 UNK         0.5709 
     67 N          34.7614   27.4330    2.8197 N.am      11 UNK        -0.7358 
     68 O          33.3357   25.9770    1.9626 O.2       11 UNK        -0.4999 
     69 C69        31.2233   28.0821    2.5671 C.3       12 UNK        -0.0954 
     70 S70        31.2264   28.5286    4.3410 S.3       12 UNK        -0.2268 
     71 C71        30.8791   26.9264    5.1326 C.3       12 UNK         0.0203 
     72 H72        31.1159   17.0806    0.8222 H         1 UNK         0.0888 
     73 H73        32.6524   17.5856    1.5307 H         1 UNK         0.0888 
     74 H74        31.1448   17.8599    2.4055 H         1 UNK         0.0888 
     75 H75        30.4898   20.0064    2.3173 H         1 UNK         0.3017 
     76 H76        31.5542   21.8388    0.3623 H         1 UNK         0.0873 
     77 H77        30.3390   23.5714    1.6433 H         1 UNK         0.0745 
     78 H78        31.3606   22.5906    2.6426 H         1 UNK         0.0745 
     79 H79        27.9561   23.7853    1.7516 H         1 UNK         0.0705 
     80 H80        26.8934   23.1161    2.9679 H         1 UNK         0.0705 
     81 H81        30.2389   24.7001    3.7176 H         1 UNK         0.1334 
     82 H82        28.4634   28.0331    5.7268 H         1 UNK         0.1417 
     83 H83        25.9718   25.1721    3.7340 H         1 UNK         0.1562 
     84 H84        25.8920   27.7774    6.1856 H         1 UNK         0.0748 
     85 H85        24.9432   26.9484    4.9764 H         1 UNK         0.0748 
     86 H86        24.9238   29.0148    1.8920 H         1 UNK         0.0940 
     87 H87        25.1768   27.4102    2.5016 H         1 UNK         0.0940 
     88 H88        27.7565   27.9361    2.3776 H         1 UNK         0.0703 
     89 H89        25.9980   27.0403    0.3136 H         1 UNK         0.3081 
     90 H90        26.8769   26.4530   -1.9009 H         1 UNK         0.0719 
     91 H91        29.6469   25.1833   -1.6131 H         1 UNK         0.0809 
     92 H92        28.5714   24.9762   -2.9946 H         1 UNK         0.0809 
     93 H93        29.2265   26.5623   -2.6147 H         1 UNK         0.0809 
     94 H94        27.6737   23.8873   -0.7827 H         1 UNK         0.2990 
     95 H95        25.3077   23.2298    1.2102 H         1 UNK         0.0690 
     96 H96        23.5910   21.8077    0.0679 H         1 UNK         0.0788 
     97 H97        23.8040   22.7497   -1.4076 H         1 UNK         0.0788 
     98 H98        23.1778   23.5123    0.0434 H         1 UNK         0.0788 
     99 H99        26.7210   21.6329    0.6417 H         1 UNK         0.2993 
    100 H100       27.1318   19.5085   -1.1206 H         1 UNK         0.0949 
    101 H101       28.8192   21.1342   -3.0966 H         1 UNK         0.0767 
    102 H102       29.0389   19.4207   -2.7455 H         1 UNK         0.0767 
    103 H103       27.5601   19.9780   -3.5091 H         1 UNK         0.0767 
    104 H104       28.8762   19.7888    0.2440 H         1 UNK         0.3013 
    105 H105       28.4768   30.0466    2.9219 H         1 UNK         0.3121 
    106 H106       28.0637   32.3175    1.2202 H         1 UNK         0.0774 
    107 H107       30.8528   31.0152    1.2565 H         1 UNK         0.0815 
    108 H108       30.4428   32.5459    0.4968 H         1 UNK         0.0815 
    109 H109       29.7927   31.0514   -0.1483 H         1 UNK         0.0815 
    110 H110       29.5684   34.1158    2.0498 H         1 UNK         0.2987 
    111 H111       29.1887   34.3520    4.8930 H         1 UNK         0.0949 
    112 H112       28.9010   36.2705    3.3177 H         1 UNK         0.0806 
    113 H113       30.1412   36.6377    4.5032 H         1 UNK         0.0806 
    114 H114       30.6056   36.1826    2.8708 H         1 UNK         0.0806 
    115 H115       30.7478   34.8084    6.4699 H         1 UNK         0.3010 
    116 H116       32.5262   34.4468    7.7439 H         1 UNK         0.0829 
    117 H117       33.4559   36.3073    6.4233 H         1 UNK         0.0813 
    118 H118       34.7414   35.1930    6.8368 H         1 UNK         0.0813 
    119 H119       34.0775   35.2103    5.2017 H         1 UNK         0.0813 
    120 H120       34.8484   33.3426    5.5270 H         1 UNK         0.3038 
    121 H121       34.2957   30.4543    6.0756 H         1 UNK         0.0769 
    122 H122       37.0279   31.8510    6.0598 H         1 UNK         0.0811 
    123 H123       36.7377   30.1358    6.3193 H         1 UNK         0.0811 
    124 H124       36.1810   31.3015    7.5057 H         1 UNK         0.0811 
    125 H125       33.7811   32.4442    3.6805 H         1 UNK         0.3204 
    126 H126       35.5707   31.6767    1.5892 H         1 UNK         0.0748 
    127 H127       33.8785   32.7536    0.1105 H         1 UNK         0.0771 
    128 H128       32.7249   32.8028    1.4355 H         1 UNK         0.0771 
    129 H129       34.2052   33.7536    1.5176 H         1 UNK         0.0771 
    130 H130       32.8164   30.0641    2.9563 H         1 UNK         0.2980 
    131 H131       32.4177   28.1649    0.8005 H         1 UNK         0.0545 
    132 H132       35.3968   26.6822    3.0359 H         1 UNK         0.3459 
    133 H133       35.0151   28.3859    3.0560 H         1 UNK         0.3459 
    134 H134       30.8618   27.0627    2.4268 H         1 UNK         0.0616 
    135 H135       30.4831   28.7125    2.0760 H         1 UNK         0.0616 
    136 H136       30.9463   27.0445    6.2148 H         1 UNK         0.0634 
    137 H137       31.6548   26.2132    4.8487 H         1 UNK         0.0634 
@<TRIPOS>BOND
     1    1    2 1    
     2    1   72 1    
     3    1   73 1    
     4    1   74 1    
     5    2    3 2    
     6    2    4 am   BACKBONE|DICT|INTERRES
     7    4    5 1    
     8    4   75 1    
     9    5    6 1    
    10    5   35 1    
    11    5   76 1    
    12    6    7 1    
    13    6   77 1    
    14    6   78 1    
    15    7    8 1    
    16    8    9 1    
    17    8   79 1    
    18    8   80 1    
    19    9   10 ar   
    20    9   14 ar   
    21   10   11 ar   
    22   10   81 1    
    23   11   12 ar   
    24   11   71 1    
    25   12   13 ar   
    26   12   82 1    
    27   13   14 ar   
    28   13   15 1    
    29   14   83 1    
    30   15   16 1    
    31   15   84 1    
    32   15   85 1    
    33   16   17 1    
    34   17   18 1    
    35   17   86 1    
    36   17   87 1    
    37   18   19 1    
    38   18   37 1    
    39   18   88 1    
    40   19   20 am   BACKBONE|DICT|INTERRES
    41   19   89 1    
    42   20   21 2    
    43   20   22 1    
    44   22   23 1    
    45   22   24 1    
    46   22   90 1    
    47   23   91 1    
    48   23   92 1    
    49   23   93 1    
    50   24   25 am   BACKBONE|DICT|INTERRES
    51   24   94 1    
    52   25   26 2    
    53   25   27 1    
    54   27   28 1    
    55   27   29 1    
    56   27   95 1    
    57   28   96 1    
    58   28   97 1    
    59   28   98 1    
    60   29   30 am   BACKBONE|DICT|INTERRES
    61   29   99 1    
    62   30   31 2    
    63   30   32 1    
    64   32   33 1    
    65   32   34 1    
    66   32  100 1    
    67   33  101 1    
    68   33  102 1    
    69   33  103 1    
    70   34   35 am   BACKBONE|DICT|INTERRES
    71   34  104 1    
    72   35   36 2    
    73   37   38 2    
    74   37   39 am   BACKBONE|DICT|INTERRES
    75   39   40 1    
    76   39  105 1    
    77   40   41 1    
    78   40   42 1    
    79   40  106 1    
    80   41  107 1    
    81   41  108 1    
    82   41  109 1    
    83   42   43 2    
    84   42   44 am   BACKBONE|DICT|INTERRES
    85   44   45 1    
    86   44  110 1    
    87   45   46 1    
    88   45   47 1    
    89   45  111 1    
    90   46  112 1    
    91   46  113 1    
    92   46  114 1    
    93   47   48 2    
    94   47   49 am   BACKBONE|DICT|INTERRES
    95   49   50 1    
    96   49  115 1    
    97   50   51 1    
    98   50   52 1    
    99   50  116 1    
   100   51  117 1    
   101   51  118 1    
   102   51  119 1    
   103   52   53 2    
   104   52   54 am   BACKBONE|DICT|INTERRES
   105   54   55 1    
   106   54  120 1    
   107   55   56 1    
   108   55   57 1    
   109   55  121 1    
   110   56  122 1    
   111   56  123 1    
   112   56  124 1    
   113   57   58 2    
   114   57   59 am   BACKBONE|DICT|INTERRES
   115   59   60 1    
   116   59  125 1    
   117   60   61 1    
   118   60   62 1    
   119   60  126 1    
   120   61  127 1    
   121   61  128 1    
   122   61  129 1    
   123   62   63 2    
   124   62   64 am   BACKBONE|DICT|INTERRES
   125   64   65 1    
   126   64  130 1    
   127   65   66 1    
   128   65   69 1    
   129   65  131 1    
   130   66   67 am   BACKBONE|DICT|INTERRES
   131   66   68 2    
   132   67  132 1    
   133   67  133 1    
   134   69   70 1    
   135   69  134 1    
   136   69  135 1    
   137   70   71 1    
   138   71  136 1    
   139   71  137 1    
@<TRIPOS>SUBSTRUCTURE
     1 UNK         1 GROUP             0       ****    0 ROOT    
