@<TRIPOS>MOLECULE
3R136
137   139    1
SMALL
USER_CHARGES


@<TRIPOS>ATOM
      1 CA         31.3379   26.5132   -4.8841 C.3       0 UNK        -0.1979 
      2 C          30.2449   26.4404   -3.8291 C.2       0 UNK         0.4864 
      3 O          29.2319   27.1328   -3.9454 O.2       0 UNK        -0.5359 
      4 N          30.4320   25.6022   -2.8012 N.am      1 UNK        -0.4318 
      5 CA         29.5122   25.4228   -1.6717 C.3       1 UNK         0.0824 
      6 C6         30.2237   24.8608   -0.4144 C.3       12 UNK        -0.0944 
      7 S7         31.6850   25.8251    0.1000 S.3       12 UNK        -0.2672 
      8 C8         32.6403   24.5570    0.9966 C.3       12 UNK         0.0333 
      9 C9         32.0997   24.3395    2.4030 C.ar      12 UNK        -0.0807 
     10 C10        32.7431   24.9210    3.4991 C.ar      12 UNK        -0.0894 
     11 C11        32.2307   24.7628    4.7897 C.ar      12 UNK        -0.0804 
     12 C12        31.0650   24.0158    4.9822 C.ar      12 UNK        -0.0824 
     13 C13        30.4197   23.4181    3.8955 C.ar      12 UNK        -0.0762 
     14 C14        30.9525   23.5675    2.6122 C.ar      12 UNK        -0.0782 
     15 C15        29.1413   22.6181    4.1021 C.3       12 UNK         0.0230 
     16 S16        27.6780   23.4876    3.4492 S.3       12 UNK        -0.2608 
     17 C17        27.6274   24.9847    4.4941 C.3       12 UNK        -0.0989 
     18 CA         28.0487   26.2524    3.7115 C.3       5 UNK         0.0716 
     19 N          27.1462   26.5244    2.5921 N.am      5 UNK        -0.4135 
     20 C          27.3115   27.4726    1.6637 C.2       4 UNK         0.5031 
     21 O          28.3063   28.2015    1.6100 O.2       4 UNK        -0.5229 
     22 CA         26.1715   27.6420    0.6359 C.3       4 UNK         0.0329 
     23 CB         26.5721   28.5314   -0.5560 C.3       4 UNK        -0.2001 
     24 N          25.6732   26.3714    0.1042 N.am      4 UNK        -0.4303 
     25 C          24.8651   25.4941    0.7141 C.2       3 UNK         0.5044 
     26 O          24.4557   25.6484    1.8651 O.2       3 UNK        -0.5152 
     27 CA         24.4907   24.2074   -0.0526 C.3       3 UNK         0.0319 
     28 CB         22.9667   24.0854   -0.2554 C.3       3 UNK        -0.2001 
     29 N          25.2310   24.0212   -1.3114 N.am      3 UNK        -0.4354 
     30 C          25.1251   24.7033   -2.4617 C.2       2 UNK         0.4964 
     31 O          24.2782   25.5703   -2.6776 O.2       2 UNK        -0.5047 
     32 CA         26.2401   24.4439   -3.4921 C.3       2 UNK         0.0288 
     33 CB         25.8998   25.0006   -4.8870 C.3       2 UNK        -0.2113 
     34 N          27.4994   25.0433   -3.0385 N.am      2 UNK        -0.4145 
     35 C          28.2880   24.5653   -2.0666 C.2       1 UNK         0.5006 
     36 O          28.0654   23.4973   -1.4908 O.2       1 UNK        -0.5103 
     37 C          28.1009   27.4820    4.6376 C.2       5 UNK         0.5055 
     38 O          27.0482   27.9470    5.0807 O.2       5 UNK        -0.5220 
     39 N          29.3146   27.9982    4.8737 N.am      6 UNK        -0.4450 
     40 CA         29.6218   29.2326    5.6108 C.3       6 UNK         0.0367 
     41 CB         29.1938   29.1278    7.0904 C.3       6 UNK        -0.1929 
     42 C          29.1241   30.5249    4.9288 C.2       6 UNK         0.5070 
     43 O          29.0570   31.5637    5.5883 O.2       6 UNK        -0.5237 
     44 N          28.8124   30.4565    3.6270 N.am      7 UNK        -0.4739 
     45 CA         28.4524   31.6032    2.7911 C.3       7 UNK         0.0276 
     46 CB         26.9808   31.4953    2.3590 C.3       7 UNK        -0.1927 
     47 C          29.3916   31.7042    1.5819 C.2       7 UNK         0.5013 
     48 O          29.8983   32.7916    1.3048 O.2       7 UNK        -0.5193 
     49 N          29.6391   30.5746    0.9027 N.am      8 UNK        -0.4253 
     50 CA         30.5797   30.4718   -0.2183 C.3       8 UNK         0.0242 
     51 CB         30.1547   29.3061   -1.1248 C.3       8 UNK        -0.2000 
     52 C          32.0432   30.2951    0.2267 C.2       8 UNK         0.4948 
     53 O          32.9383   30.4232   -0.6104 O.2       8 UNK        -0.5275 
     54 N          32.2690   30.0014    1.5122 N.am      9 UNK        -0.4246 
     55 CA         33.5797   29.8043    2.1200 C.3       9 UNK         0.0261 
     56 CB         33.8542   28.2969    2.2485 C.3       9 UNK        -0.1959 
     57 C          33.5894   30.4705    3.4977 C.2       9 UNK         0.5033 
     58 O          32.5488   30.5213    4.1585 O.2       9 UNK        -0.5390 
     59 N          34.7697   30.9371    3.9193 N.am      10 UNK        -0.4215 
     60 CA         35.0184   31.5018    5.2444 C.3       10 UNK         0.0240 
     61 CB         36.1276   32.5657    5.1388 C.3       10 UNK        -0.1982 
     62 C          35.3828   30.3675    6.2148 C.2       10 UNK         0.4970 
     63 O          36.5654   30.1290    6.4670 O.2       10 UNK        -0.4916 
     64 N          34.3571   29.6584    6.6982 N.am      11 UNK        -0.4279 
     65 CA         34.4835   28.4912    7.5887 C.3       11 UNK         0.1003 
     66 C          35.0047   28.8053    9.0223 C.2       11 UNK         0.5709 
     67 N          35.0073   30.0546    9.4727 N.am      11 UNK        -0.7358 
     68 O          35.4186   27.8954    9.7370 O.2       11 UNK        -0.4999 
     69 C69        33.1656   27.6768    7.6585 C.3       12 UNK        -0.0954 
     70 S70        32.5381   27.1897    6.0183 S.3       12 UNK        -0.2268 
     71 C71        32.9249   25.4186    5.9715 C.3       12 UNK         0.0203 
     72 H72        31.7231   27.5302   -4.9533 H         1 UNK         0.0888 
     73 H73        32.1714   25.8498   -4.6540 H         1 UNK         0.0888 
     74 H74        30.9384   26.2323   -5.8581 H         1 UNK         0.0888 
     75 H75        31.2778   25.0518   -2.7587 H         1 UNK         0.3017 
     76 H76        29.1204   26.4040   -1.3995 H         1 UNK         0.0873 
     77 H77        29.5275   24.8417    0.4267 H         1 UNK         0.0745 
     78 H78        30.5317   23.8283   -0.5896 H         1 UNK         0.0745 
     79 H79        33.6816   24.8796    1.0413 H         1 UNK         0.0705 
     80 H80        32.6404   23.6179    0.4416 H         1 UNK         0.0705 
     81 H81        33.6364   25.5115    3.3497 H         1 UNK         0.1334 
     82 H82        30.6583   23.9042    5.9781 H         1 UNK         0.1417 
     83 H83        30.4529   23.1020    1.7744 H         1 UNK         0.1562 
     84 H84        28.9861   22.3940    5.1587 H         1 UNK         0.0748 
     85 H85        29.2339   21.6555    3.5973 H         1 UNK         0.0748 
     86 H86        28.2656   24.8395    5.3674 H         1 UNK         0.0940 
     87 H87        26.6127   25.0944    4.8824 H         1 UNK         0.0940 
     88 H88        29.0448   26.0847    3.2944 H         1 UNK         0.0703 
     89 H89        26.2723   26.0096    2.5836 H         1 UNK         0.3081 
     90 H90        25.3529   28.1381    1.1612 H         1 UNK         0.0719 
     91 H91        27.3553   28.0680   -1.1550 H         1 UNK         0.0809 
     92 H92        25.7210   28.7179   -1.2113 H         1 UNK         0.0809 
     93 H93        26.9405   29.5041   -0.2307 H         1 UNK         0.0809 
     94 H94        25.9409   26.1546   -0.8434 H         1 UNK         0.2990 
     95 H95        24.8004   23.3813    0.5895 H         1 UNK         0.0690 
     96 H96        22.7080   23.1668   -0.7820 H         1 UNK         0.0788 
     97 H97        22.5594   24.9243   -0.8199 H         1 UNK         0.0788 
     98 H98        22.4490   24.0648    0.7045 H         1 UNK         0.0788 
     99 H99        26.0342   23.4031   -1.2379 H         1 UNK         0.2993 
    100 H100       26.3699   23.3630   -3.5830 H         1 UNK         0.0949 
    101 H101       25.7931   26.0862   -4.8760 H         1 UNK         0.0767 
    102 H102       26.6739   24.7490   -5.6122 H         1 UNK         0.0767 
    103 H103       24.9620   24.5828   -5.2559 H         1 UNK         0.0767 
    104 H104       27.7866   25.9123   -3.4823 H         1 UNK         0.3013 
    105 H105       30.1181   27.5350    4.4698 H         1 UNK         0.3121 
    106 H106       30.7068   29.3213    5.6026 H         1 UNK         0.0774 
    107 H107       29.5769   29.9697    7.6681 H         1 UNK         0.0815 
    108 H108       28.1095   29.1265    7.2020 H         1 UNK         0.0815 
    109 H109       29.5828   28.2196    7.5507 H         1 UNK         0.0815 
    110 H110       28.8616   29.5567    3.1642 H         1 UNK         0.2987 
    111 H111       28.5668   32.5335    3.3520 H         1 UNK         0.0949 
    112 H112       26.7100   32.3057    1.6809 H         1 UNK         0.0806 
    113 H113       26.7723   30.5560    1.8499 H         1 UNK         0.0806 
    114 H114       26.3159   31.5574    3.2205 H         1 UNK         0.0806 
    115 H115       29.1630   29.7137    1.1697 H         1 UNK         0.3010 
    116 H116       30.5333   31.3899   -0.8079 H         1 UNK         0.0829 
    117 H117       29.1860   29.4969   -1.5843 H         1 UNK         0.0813 
    118 H118       30.8665   29.1526   -1.9372 H         1 UNK         0.0813 
    119 H119       30.0922   28.3723   -0.5665 H         1 UNK         0.0813 
    120 H120       31.4940   29.9931    2.1612 H         1 UNK         0.3038 
    121 H121       34.3554   30.2656    1.5049 H         1 UNK         0.0769 
    122 H122       34.8147   28.1072    2.7291 H         1 UNK         0.0811 
    123 H123       33.8770   27.8143    1.2713 H         1 UNK         0.0811 
    124 H124       33.0851   27.8048    2.8450 H         1 UNK         0.0811 
    125 H125       35.5799   30.8140    3.3284 H         1 UNK         0.3204 
    126 H126       34.1173   31.9957    5.6154 H         1 UNK         0.0748 
    127 H127       36.3497   32.9947    6.1169 H         1 UNK         0.0771 
    128 H128       37.0569   32.1513    4.7455 H         1 UNK         0.0771 
    129 H129       35.8262   33.3862    4.4872 H         1 UNK         0.0771 
    130 H130       33.4219   29.8836    6.3882 H         1 UNK         0.2980 
    131 H131       35.2369   27.8405    7.1406 H         1 UNK         0.0545 
    132 H132       35.3509   30.2438   10.4010 H         1 UNK         0.3459 
    133 H133       34.6684   30.8072    8.8959 H         1 UNK         0.3459 
    134 H134       32.3861   28.2638    8.1478 H         1 UNK         0.0616 
    135 H135       33.2975   26.7823    8.2699 H         1 UNK         0.0616 
    136 H136       32.6106   24.9484    6.9046 H         1 UNK         0.0634 
    137 H137       34.0050   25.2833    5.8977 H         1 UNK         0.0634 
@<TRIPOS>BOND
     1    1    2 1    
     2    1   72 1    
     3    1   73 1    
     4    1   74 1    
     5    2    3 2    
     6    2    4 am   BACKBONE|DICT|INTERRES
     7    4    5 1    
     8    4   75 1    
     9    5    6 1    
    10    5   35 1    
    11    5   76 1    
    12    6    7 1    
    13    6   77 1    
    14    6   78 1    
    15    7    8 1    
    16    8    9 1    
    17    8   79 1    
    18    8   80 1    
    19    9   10 ar   
    20    9   14 ar   
    21   10   11 ar   
    22   10   81 1    
    23   11   12 ar   
    24   11   71 1    
    25   12   13 ar   
    26   12   82 1    
    27   13   14 ar   
    28   13   15 1    
    29   14   83 1    
    30   15   16 1    
    31   15   84 1    
    32   15   85 1    
    33   16   17 1    
    34   17   18 1    
    35   17   86 1    
    36   17   87 1    
    37   18   19 1    
    38   18   37 1    
    39   18   88 1    
    40   19   20 am   BACKBONE|DICT|INTERRES
    41   19   89 1    
    42   20   21 2    
    43   20   22 1    
    44   22   23 1    
    45   22   24 1    
    46   22   90 1    
    47   23   91 1    
    48   23   92 1    
    49   23   93 1    
    50   24   25 am   BACKBONE|DICT|INTERRES
    51   24   94 1    
    52   25   26 2    
    53   25   27 1    
    54   27   28 1    
    55   27   29 1    
    56   27   95 1    
    57   28   96 1    
    58   28   97 1    
    59   28   98 1    
    60   29   30 am   BACKBONE|DICT|INTERRES
    61   29   99 1    
    62   30   31 2    
    63   30   32 1    
    64   32   33 1    
    65   32   34 1    
    66   32  100 1    
    67   33  101 1    
    68   33  102 1    
    69   33  103 1    
    70   34   35 am   BACKBONE|DICT|INTERRES
    71   34  104 1    
    72   35   36 2    
    73   37   38 2    
    74   37   39 am   BACKBONE|DICT|INTERRES
    75   39   40 1    
    76   39  105 1    
    77   40   41 1    
    78   40   42 1    
    79   40  106 1    
    80   41  107 1    
    81   41  108 1    
    82   41  109 1    
    83   42   43 2    
    84   42   44 am   BACKBONE|DICT|INTERRES
    85   44   45 1    
    86   44  110 1    
    87   45   46 1    
    88   45   47 1    
    89   45  111 1    
    90   46  112 1    
    91   46  113 1    
    92   46  114 1    
    93   47   48 2    
    94   47   49 am   BACKBONE|DICT|INTERRES
    95   49   50 1    
    96   49  115 1    
    97   50   51 1    
    98   50   52 1    
    99   50  116 1    
   100   51  117 1    
   101   51  118 1    
   102   51  119 1    
   103   52   53 2    
   104   52   54 am   BACKBONE|DICT|INTERRES
   105   54   55 1    
   106   54  120 1    
   107   55   56 1    
   108   55   57 1    
   109   55  121 1    
   110   56  122 1    
   111   56  123 1    
   112   56  124 1    
   113   57   58 2    
   114   57   59 am   BACKBONE|DICT|INTERRES
   115   59   60 1    
   116   59  125 1    
   117   60   61 1    
   118   60   62 1    
   119   60  126 1    
   120   61  127 1    
   121   61  128 1    
   122   61  129 1    
   123   62   63 2    
   124   62   64 am   BACKBONE|DICT|INTERRES
   125   64   65 1    
   126   64  130 1    
   127   65   66 1    
   128   65   69 1    
   129   65  131 1    
   130   66   67 am   BACKBONE|DICT|INTERRES
   131   66   68 2    
   132   67  132 1    
   133   67  133 1    
   134   69   70 1    
   135   69  134 1    
   136   69  135 1    
   137   70   71 1    
   138   71  136 1    
   139   71  137 1    
@<TRIPOS>SUBSTRUCTURE
     1 UNK         1 GROUP             0       ****    0 ROOT    
