@<TRIPOS>MOLECULE
3R136
137   139    1
SMALL
USER_CHARGES


@<TRIPOS>ATOM
      1 CA         26.4789   16.6428   -0.7638 C.3       0 UNK        -0.1979 
      2 C          26.5426   18.0659   -0.2290 C.2       0 UNK         0.4864 
      3 O          25.7069   18.4492    0.5912 O.2       0 UNK        -0.5359 
      4 N          27.5221   18.8541   -0.6910 N.am      1 UNK        -0.4318 
      5 CA         27.7723   20.2252   -0.2433 C.3       1 UNK         0.0824 
      6 C6         28.6778   20.9803   -1.2490 C.3       12 UNK        -0.0944 
      7 S7         28.9703   22.7289   -0.8072 S.3       12 UNK        -0.2672 
      8 C8         30.7628   22.6994   -0.5091 C.3       12 UNK         0.0333 
      9 C9         31.2853   24.0709   -0.1135 C.ar      12 UNK        -0.0807 
     10 C10        31.6330   24.3375    1.2132 C.ar      12 UNK        -0.0894 
     11 C11        32.1406   25.5856    1.5892 C.ar      12 UNK        -0.0804 
     12 C12        32.3147   26.5668    0.6027 C.ar      12 UNK        -0.0824 
     13 C13        31.9708   26.3137   -0.7296 C.ar      12 UNK        -0.0762 
     14 C14        31.4529   25.0647   -1.0809 C.ar      12 UNK        -0.0782 
     15 C15        32.1961   27.3736   -1.8001 C.3       12 UNK         0.0230 
     16 S16        30.6636   28.2518   -2.2439 S.3       12 UNK        -0.2608 
     17 C17        30.3732   29.2592   -0.7503 C.3       12 UNK        -0.0989 
     18 CA         28.8925   29.2577   -0.2915 C.3       5 UNK         0.0716 
     19 N          28.3573   27.9034   -0.1268 N.am      5 UNK        -0.4135 
     20 C          27.0616   27.5745   -0.2143 C.2       4 UNK         0.5031 
     21 O          26.1661   28.3901   -0.4431 O.2       4 UNK        -0.5229 
     22 CA         26.6953   26.0968    0.0032 C.3       4 UNK         0.0329 
     23 CB         26.7101   25.3455   -1.3368 C.3       4 UNK        -0.2001 
     24 N          27.5612   25.4148    0.9737 N.am      4 UNK        -0.4303 
     25 C          27.5753   25.6964    2.2852 C.2       3 UNK         0.5044 
     26 O          26.8395   26.5336    2.8089 O.2       3 UNK        -0.5152 
     27 CA         28.5306   24.8670    3.1522 C.3       3 UNK         0.0319 
     28 CB         28.6609   25.4086    4.5915 C.3       3 UNK        -0.2001 
     29 N          28.0785   23.4778    3.1598 N.am      3 UNK        -0.4354 
     30 C          28.8081   22.4228    3.5475 C.2       2 UNK         0.4964 
     31 O          29.9798   22.4908    3.9190 O.2       2 UNK        -0.5047 
     32 CA         28.1096   21.0563    3.4927 C.3       2 UNK         0.0288 
     33 CB         26.9386   20.9807    4.4889 C.3       2 UNK        -0.2113 
     34 N          27.6288   20.7910    2.1376 N.am      2 UNK        -0.4145 
     35 C          28.3652   20.2127    1.1805 C.2       1 UNK         0.5006 
     36 O          29.4722   19.7020    1.3707 O.2       1 UNK        -0.5103 
     37 C          28.6917   30.0647    1.0078 C.2       5 UNK         0.5055 
     38 O          29.6676   30.4105    1.6726 O.2       5 UNK        -0.5220 
     39 N          27.4276   30.3378    1.3563 N.am      6 UNK        -0.4450 
     40 CA         26.9933   30.9502    2.6185 C.3       6 UNK         0.0367 
     41 CB         25.4592   31.0428    2.6252 C.3       6 UNK        -0.1929 
     42 C          27.6136   32.3231    2.9459 C.2       6 UNK         0.5070 
     43 O          27.6722   32.6855    4.1216 O.2       6 UNK        -0.5237 
     44 N          28.0619   33.0554    1.9189 N.am      7 UNK        -0.4739 
     45 CA         28.7166   34.3584    2.0447 C.3       7 UNK         0.0276 
     46 CB         28.2900   35.2319    0.8518 C.3       7 UNK        -0.1927 
     47 C          30.2544   34.2768    2.1245 C.2       7 UNK         0.5013 
     48 O          30.8790   35.3097    2.3743 O.2       7 UNK        -0.5193 
     49 N          30.8535   33.1007    1.8802 N.am      8 UNK        -0.4253 
     50 CA         32.3093   32.9212    1.8651 C.3       8 UNK         0.0242 
     51 CB         32.6742   31.7194    0.9785 C.3       8 UNK        -0.2000 
     52 C          32.8811   32.7546    3.2816 C.2       8 UNK         0.4948 
     53 O          32.1684   32.3290    4.1955 O.2       8 UNK        -0.5275 
     54 N          34.1728   33.0782    3.4322 N.am      9 UNK        -0.4246 
     55 CA         34.9238   33.0085    4.6884 C.3       9 UNK         0.0261 
     56 CB         36.3656   33.4883    4.4502 C.3       9 UNK        -0.1959 
     57 C          34.9084   31.5960    5.2979 C.2       9 UNK         0.5033 
     58 O          35.3762   30.6542    4.6556 O.2       9 UNK        -0.5390 
     59 N          34.3460   31.4934    6.5102 N.am      10 UNK        -0.4215 
     60 CA         34.1315   30.2790    7.3096 C.3       10 UNK         0.0240 
     61 CB         35.4690   29.5793    7.6370 C.3       10 UNK        -0.1982 
     62 C          33.0847   29.2951    6.7422 C.2       10 UNK         0.4970 
     63 O          32.9241   28.2181    7.3194 O.2       10 UNK        -0.4916 
     64 N          32.3724   29.6713    5.6719 N.am      11 UNK        -0.4279 
     65 CA         31.2841   28.8871    5.0629 C.3       11 UNK         0.1003 
     66 C          29.9282   29.6424    5.1124 C.2       11 UNK         0.5709 
     67 N          29.9070   30.9692    5.0992 N.am      11 UNK        -0.7358 
     68 O          28.8779   29.0137    5.1998 O.2       11 UNK        -0.4999 
     69 C69        31.6208   28.4452    3.6137 C.3       12 UNK        -0.0954 
     70 S70        33.1474   27.4484    3.5104 S.3       12 UNK        -0.2268 
     71 C71        32.5065   25.7976    3.0627 C.3       12 UNK         0.0203 
     72 H72        27.2693   16.4429   -1.4871 H         1 UNK         0.0888 
     73 H73        26.5798   15.9300    0.0542 H         1 UNK         0.0888 
     74 H74        25.5206   16.4682   -1.2523 H         1 UNK         0.0888 
     75 H75        28.1952   18.4759   -1.3424 H         1 UNK         0.3017 
     76 H76        26.8118   20.7452   -0.2173 H         1 UNK         0.0873 
     77 H77        28.2134   20.9698   -2.2364 H         1 UNK         0.0745 
     78 H78        29.6324   20.4635   -1.3661 H         1 UNK         0.0745 
     79 H79        30.9861   21.9656    0.2673 H         1 UNK         0.0705 
     80 H80        31.2752   22.3622   -1.4115 H         1 UNK         0.0705 
     81 H81        31.5103   23.5657    1.9616 H         1 UNK         0.1334 
     82 H82        32.7294   27.5310    0.8574 H         1 UNK         0.1417 
     83 H83        31.1900   24.8615   -2.1105 H         1 UNK         0.1562 
     84 H84        32.5994   26.9006   -2.6968 H         1 UNK         0.0748 
     85 H85        32.9478   28.0963   -1.4780 H         1 UNK         0.0748 
     86 H86        30.6929   30.2786   -0.9718 H         1 UNK         0.0940 
     87 H87        31.0203   28.9142    0.0553 H         1 UNK         0.0940 
     88 H88        28.3175   29.7611   -1.0720 H         1 UNK         0.0703 
     89 H89        29.0317   27.1774    0.0635 H         1 UNK         0.3081 
     90 H90        25.6746   26.0692    0.3910 H         1 UNK         0.0719 
     91 H91        26.0457   25.8229   -2.0584 H         1 UNK         0.0809 
     92 H92        27.7073   25.3257   -1.7785 H         1 UNK         0.0809 
     93 H93        26.3698   24.3166   -1.2199 H         1 UNK         0.0809 
     94 H94        28.1732   24.6932    0.6142 H         1 UNK         0.2990 
     95 H95        29.5093   24.9179    2.6810 H         1 UNK         0.0690 
     96 H96        29.4124   24.8635    5.1623 H         1 UNK         0.0788 
     97 H97        27.7167   25.3460    5.1335 H         1 UNK         0.0788 
     98 H98        28.9659   26.4545    4.5830 H         1 UNK         0.0788 
     99 H99        27.1247   23.3316    2.8600 H         1 UNK         0.2993 
    100 H100       28.8398   20.2958    3.7798 H         1 UNK         0.0949 
    101 H101       27.2768   21.1968    5.5034 H         1 UNK         0.0767 
    102 H102       26.1451   21.6899    4.2511 H         1 UNK         0.0767 
    103 H103       26.4990   19.9830    4.5015 H         1 UNK         0.0767 
    104 H104       26.7137   21.1438    1.8974 H         1 UNK         0.3013 
    105 H105       26.6979   29.9642    0.7574 H         1 UNK         0.3121 
    106 H106       27.2927   30.2695    3.4171 H         1 UNK         0.0774 
    107 H107       25.0907   31.6790    1.8196 H         1 UNK         0.0815 
    108 H108       25.0019   30.0592    2.5148 H         1 UNK         0.0815 
    109 H109       25.0966   31.4623    3.5648 H         1 UNK         0.0815 
    110 H110       27.9768   32.6735    0.9882 H         1 UNK         0.2987 
    111 H111       28.3771   34.8502    2.9592 H         1 UNK         0.0949 
    112 H112       27.2069   35.3497    0.8137 H         1 UNK         0.0806 
    113 H113       28.7188   36.2325    0.9246 H         1 UNK         0.0806 
    114 H114       28.6161   34.8065   -0.0981 H         1 UNK         0.0806 
    115 H115       30.2914   32.2589    1.7885 H         1 UNK         0.3010 
    116 H116       32.7627   33.8104    1.4209 H         1 UNK         0.0829 
    117 H117       32.2478   30.7919    1.3548 H         1 UNK         0.0813 
    118 H118       33.7547   31.5797    0.9278 H         1 UNK         0.0813 
    119 H119       32.3207   31.8621   -0.0423 H         1 UNK         0.0813 
    120 H120       34.6906   33.3829    2.6209 H         1 UNK         0.3038 
    121 H121       34.4499   33.7021    5.3863 H         1 UNK         0.0769 
    122 H122       36.3893   34.5160    4.0873 H         1 UNK         0.0811 
    123 H123       36.8845   32.8621    3.7230 H         1 UNK         0.0811 
    124 H124       36.9436   33.4592    5.3749 H         1 UNK         0.0811 
    125 H125       33.9711   32.3387    6.9199 H         1 UNK         0.3204 
    126 H126       33.7135   30.6276    8.2552 H         1 UNK         0.0748 
    127 H127       35.9151   29.1221    6.7533 H         1 UNK         0.0771 
    128 H128       36.1923   30.2792    8.0555 H         1 UNK         0.0771 
    129 H129       35.3269   28.7861    8.3720 H         1 UNK         0.0771 
    130 H130       32.5393   30.5808    5.2582 H         1 UNK         0.2980 
    131 H131       31.1257   27.9745    5.6403 H         1 UNK         0.0545 
    132 H132       29.0186   31.4521    5.1020 H         1 UNK         0.3459 
    133 H133       30.7538   31.4987    4.9063 H         1 UNK         0.3459 
    134 H134       31.7564   29.3222    2.9828 H         1 UNK         0.0616 
    135 H135       30.7925   27.8836    3.1773 H         1 UNK         0.0616 
    136 H136       33.2721   25.0674    3.3281 H         1 UNK         0.0634 
    137 H137       31.6435   25.5745    3.6912 H         1 UNK         0.0634 
@<TRIPOS>BOND
     1    1    2 1    
     2    1   72 1    
     3    1   73 1    
     4    1   74 1    
     5    2    3 2    
     6    2    4 am   BACKBONE|DICT|INTERRES
     7    4    5 1    
     8    4   75 1    
     9    5    6 1    
    10    5   35 1    
    11    5   76 1    
    12    6    7 1    
    13    6   77 1    
    14    6   78 1    
    15    7    8 1    
    16    8    9 1    
    17    8   79 1    
    18    8   80 1    
    19    9   10 ar   
    20    9   14 ar   
    21   10   11 ar   
    22   10   81 1    
    23   11   12 ar   
    24   11   71 1    
    25   12   13 ar   
    26   12   82 1    
    27   13   14 ar   
    28   13   15 1    
    29   14   83 1    
    30   15   16 1    
    31   15   84 1    
    32   15   85 1    
    33   16   17 1    
    34   17   18 1    
    35   17   86 1    
    36   17   87 1    
    37   18   19 1    
    38   18   37 1    
    39   18   88 1    
    40   19   20 am   BACKBONE|DICT|INTERRES
    41   19   89 1    
    42   20   21 2    
    43   20   22 1    
    44   22   23 1    
    45   22   24 1    
    46   22   90 1    
    47   23   91 1    
    48   23   92 1    
    49   23   93 1    
    50   24   25 am   BACKBONE|DICT|INTERRES
    51   24   94 1    
    52   25   26 2    
    53   25   27 1    
    54   27   28 1    
    55   27   29 1    
    56   27   95 1    
    57   28   96 1    
    58   28   97 1    
    59   28   98 1    
    60   29   30 am   BACKBONE|DICT|INTERRES
    61   29   99 1    
    62   30   31 2    
    63   30   32 1    
    64   32   33 1    
    65   32   34 1    
    66   32  100 1    
    67   33  101 1    
    68   33  102 1    
    69   33  103 1    
    70   34   35 am   BACKBONE|DICT|INTERRES
    71   34  104 1    
    72   35   36 2    
    73   37   38 2    
    74   37   39 am   BACKBONE|DICT|INTERRES
    75   39   40 1    
    76   39  105 1    
    77   40   41 1    
    78   40   42 1    
    79   40  106 1    
    80   41  107 1    
    81   41  108 1    
    82   41  109 1    
    83   42   43 2    
    84   42   44 am   BACKBONE|DICT|INTERRES
    85   44   45 1    
    86   44  110 1    
    87   45   46 1    
    88   45   47 1    
    89   45  111 1    
    90   46  112 1    
    91   46  113 1    
    92   46  114 1    
    93   47   48 2    
    94   47   49 am   BACKBONE|DICT|INTERRES
    95   49   50 1    
    96   49  115 1    
    97   50   51 1    
    98   50   52 1    
    99   50  116 1    
   100   51  117 1    
   101   51  118 1    
   102   51  119 1    
   103   52   53 2    
   104   52   54 am   BACKBONE|DICT|INTERRES
   105   54   55 1    
   106   54  120 1    
   107   55   56 1    
   108   55   57 1    
   109   55  121 1    
   110   56  122 1    
   111   56  123 1    
   112   56  124 1    
   113   57   58 2    
   114   57   59 am   BACKBONE|DICT|INTERRES
   115   59   60 1    
   116   59  125 1    
   117   60   61 1    
   118   60   62 1    
   119   60  126 1    
   120   61  127 1    
   121   61  128 1    
   122   61  129 1    
   123   62   63 2    
   124   62   64 am   BACKBONE|DICT|INTERRES
   125   64   65 1    
   126   64  130 1    
   127   65   66 1    
   128   65   69 1    
   129   65  131 1    
   130   66   67 am   BACKBONE|DICT|INTERRES
   131   66   68 2    
   132   67  132 1    
   133   67  133 1    
   134   69   70 1    
   135   69  134 1    
   136   69  135 1    
   137   70   71 1    
   138   71  136 1    
   139   71  137 1    
@<TRIPOS>SUBSTRUCTURE
     1 UNK         1 GROUP             0       ****    0 ROOT    
