@<TRIPOS>MOLECULE
3R136
137   139    1
SMALL
USER_CHARGES


@<TRIPOS>ATOM
      1 CA         25.6347   25.8056    5.0496 C.3       0 UNK        -0.1979 
      2 C          26.0600   24.6366    4.1743 C.2       0 UNK         0.4864 
      3 O          25.5150   23.5386    4.3053 O.2       0 UNK        -0.5359 
      4 N          27.0218   24.8622    3.2722 N.am      1 UNK        -0.4318 
      5 CA         27.5526   23.8983    2.3037 C.3       1 UNK         0.0824 
      6 C6         28.9675   24.3399    1.8610 C.3       12 UNK        -0.0944 
      7 S7         29.9560   23.0249    1.0683 S.3       12 UNK        -0.2672 
      8 C8         31.5781   23.2073    1.8940 C.3       12 UNK         0.0333 
      9 C9         32.1087   24.6388    1.8696 C.ar      12 UNK        -0.0807 
     10 C10        32.5030   25.2605    3.0598 C.ar      12 UNK        -0.0894 
     11 C11        32.9452   26.5868    3.0567 C.ar      12 UNK        -0.0804 
     12 C12        32.9666   27.2998    1.8548 C.ar      12 UNK        -0.0824 
     13 C13        32.5898   26.6890    0.6576 C.ar      12 UNK        -0.0762 
     14 C14        32.1873   25.3499    0.6673 C.ar      12 UNK        -0.0782 
     15 C15        32.6046   27.4854   -0.6398 C.3       12 UNK         0.0230 
     16 S16        31.0807   28.4644   -0.8486 S.3       12 UNK        -0.2608 
     17 C17        29.8598   27.1334   -1.1026 C.3       12 UNK        -0.0989 
     18 CA         28.3951   27.6254   -1.2537 C.3       5 UNK         0.0716 
     19 N          27.5654   26.6235   -1.9159 N.am      5 UNK        -0.4135 
     20 C          27.5753   26.3491   -3.2234 C.2       4 UNK         0.5031 
     21 O          28.2743   26.9463   -4.0435 O.2       4 UNK        -0.5229 
     22 CA         26.6725   25.2040   -3.7074 C.3       4 UNK         0.0329 
     23 CB         27.4532   23.8792   -3.7156 C.3       4 UNK        -0.2001 
     24 N          25.4594   25.0364   -2.9062 N.am      4 UNK        -0.4303 
     25 C          24.3779   25.8277   -2.9740 C.2       3 UNK         0.5044 
     26 O          24.3166   26.8322   -3.6840 O.2       3 UNK        -0.5152 
     27 CA         23.1409   25.4185   -2.1484 C.3       3 UNK         0.0319 
     28 CB         21.9472   25.1205   -3.0727 C.3       3 UNK        -0.2001 
     29 N          23.4013   24.2349   -1.3244 N.am      3 UNK        -0.4354 
     30 C          23.7321   24.2646   -0.0284 C.2       2 UNK         0.4964 
     31 O          23.6821   25.2806    0.6673 O.2       2 UNK        -0.5047 
     32 CA         24.2112   22.9407    0.6031 C.3       2 UNK         0.0288 
     33 CB         24.4975   21.8112   -0.4150 C.3       2 UNK        -0.2113 
     34 N          25.3779   23.1545    1.4654 N.am      2 UNK        -0.4145 
     35 C          26.5587   23.6999    1.1322 C.2       1 UNK         0.5006 
     36 O          26.8509   24.0559   -0.0141 O.2       1 UNK        -0.5103 
     37 C          27.7274   27.9875    0.0880 C.2       5 UNK         0.5055 
     38 O          26.6881   27.4180    0.4330 O.2       5 UNK        -0.5220 
     39 N          28.3264   28.9439    0.8062 N.am      6 UNK        -0.4450 
     40 CA         27.9071   29.3967    2.1322 C.3       6 UNK         0.0367 
     41 CB         28.2056   30.9035    2.2654 C.3       6 UNK        -0.1929 
     42 C          28.5517   28.5194    3.2240 C.2       6 UNK         0.5070 
     43 O          28.4220   27.2966    3.1671 O.2       6 UNK        -0.5237 
     44 N          29.2090   29.1337    4.2129 N.am      7 UNK        -0.4739 
     45 CA         29.8593   28.4712    5.3411 C.3       7 UNK         0.0276 
     46 CB         28.7986   27.9522    6.3356 C.3       7 UNK        -0.1927 
     47 C          30.8194   29.4577    6.0211 C.2       7 UNK         0.5013 
     48 O          30.8537   30.6348    5.6466 O.2       7 UNK        -0.5193 
     49 N          31.5602   28.9559    7.0214 N.am      8 UNK        -0.4253 
     50 CA         32.4374   29.6903    7.9414 C.3       8 UNK         0.0242 
     51 CB         31.5843   30.4581    8.9776 C.3       8 UNK        -0.2000 
     52 C          33.4660   30.5701    7.2080 C.2       8 UNK         0.4948 
     53 O          34.3940   30.0316    6.6040 O.2       8 UNK        -0.5275 
     54 N          33.2643   31.8958    7.2398 N.am      9 UNK        -0.4246 
     55 CA         34.1032   32.9234    6.6137 C.3       9 UNK         0.0261 
     56 CB         33.5053   34.3083    6.9099 C.3       9 UNK        -0.1959 
     57 C          34.3267   32.7491    5.0998 C.2       9 UNK         0.5033 
     58 O          35.3275   33.2518    4.5879 O.2       9 UNK        -0.5390 
     59 N          33.4364   32.0118    4.4188 N.am      10 UNK        -0.4215 
     60 CA         33.5828   31.6129    3.0162 C.3       10 UNK         0.0240 
     61 CB         32.2610   30.9991    2.5277 C.3       10 UNK        -0.1982 
     62 C          34.7664   30.6603    2.7425 C.2       10 UNK         0.4970 
     63 O          35.1537   30.5285    1.5810 O.2       10 UNK        -0.4916 
     64 N          35.3164   30.0184    3.7823 N.am      11 UNK        -0.4279 
     65 CA         36.4797   29.1225    3.7036 C.3       11 UNK         0.1003 
     66 C          37.5099   29.3427    4.8487 C.2       11 UNK         0.5709 
     67 N          37.4688   30.4600    5.5659 N.am      11 UNK        -0.7358 
     68 O          38.3872   28.5110    5.0701 O.2       11 UNK        -0.4999 
     69 C69        36.0713   27.6408    3.4719 C.3       12 UNK        -0.0954 
     70 S70        35.0926   26.8857    4.8193 S.3       12 UNK        -0.2268 
     71 C71        33.3714   27.2591    4.3540 C.3       12 UNK         0.0203 
     72 H72        24.5483   25.8891    5.0632 H         1 UNK         0.0888 
     73 H73        26.0384   26.7499    4.6846 H         1 UNK         0.0888 
     74 H74        25.9797   25.6554    6.0721 H         1 UNK         0.0888 
     75 H75        27.4373   25.7929    3.2096 H         1 UNK         0.3017 
     76 H76        27.6502   22.9359    2.8108 H         1 UNK         0.0873 
     77 H77        28.9075   25.2011    1.1983 H         1 UNK         0.0745 
     78 H78        29.5171   24.6882    2.7369 H         1 UNK         0.0745 
     79 H79        31.4830   22.8493    2.9203 H         1 UNK         0.0705 
     80 H80        32.3000   22.5528    1.4043 H         1 UNK         0.0705 
     81 H81        32.4612   24.7157    3.9931 H         1 UNK         0.1334 
     82 H82        33.2850   28.3316    1.8450 H         1 UNK         0.1417 
     83 H83        31.8901   24.8709   -0.2557 H         1 UNK         0.1562 
     84 H84        32.7349   26.8231   -1.4971 H         1 UNK         0.0748 
     85 H85        33.4610   28.1617   -0.6447 H         1 UNK         0.0748 
     86 H86        29.9309   26.4130   -0.2919 H         1 UNK         0.0940 
     87 H87        30.1725   26.5965   -1.9995 H         1 UNK         0.0940 
     88 H88        28.3794   28.5266   -1.8706 H         1 UNK         0.0703 
     89 H89        26.9491   26.1131   -1.2917 H         1 UNK         0.3081 
     90 H90        26.3764   25.4299   -4.7342 H         1 UNK         0.0719 
     91 H91        27.7644   23.5880   -2.7110 H         1 UNK         0.0809 
     92 H92        26.8554   23.0677   -4.1309 H         1 UNK         0.0809 
     93 H93        28.3544   23.9608   -4.3249 H         1 UNK         0.0809 
     94 H94        25.4571   24.2717   -2.2468 H         1 UNK         0.2990 
     95 H95        22.8773   26.2698   -1.5173 H         1 UNK         0.0690 
     96 H96        21.0584   24.8578   -2.4987 H         1 UNK         0.0788 
     97 H97        22.1603   24.2985   -3.7572 H         1 UNK         0.0788 
     98 H98        21.6929   25.9916   -3.6782 H         1 UNK         0.0788 
     99 H99        23.4356   23.3478   -1.8074 H         1 UNK         0.2993 
    100 H100       23.4028   22.6073    1.2555 H         1 UNK         0.0949 
    101 H101       23.6000   21.5339   -0.9691 H         1 UNK         0.0767 
    102 H102       25.2671   22.0906   -1.1358 H         1 UNK         0.0767 
    103 H103       24.8408   20.9098    0.0932 H         1 UNK         0.0767 
    104 H104       25.2263   22.9977    2.4587 H         1 UNK         0.3013 
    105 H105       29.2094   29.3006    0.4646 H         1 UNK         0.3121 
    106 H106       26.8272   29.2679    2.2309 H         1 UNK         0.0774 
    107 H107       27.6883   31.4718    1.4921 H         1 UNK         0.0815 
    108 H108       29.2690   31.1179    2.1717 H         1 UNK         0.0815 
    109 H109       27.8639   31.2962    3.2241 H         1 UNK         0.0815 
    110 H110       29.3277   30.1397    4.2031 H         1 UNK         0.2987 
    111 H111       30.4444   27.6319    4.9604 H         1 UNK         0.0949 
    112 H112       28.1673   28.7608    6.7059 H         1 UNK         0.0806 
    113 H113       28.1514   27.2075    5.8748 H         1 UNK         0.0806 
    114 H114       29.2559   27.4724    7.2013 H         1 UNK         0.0806 
    115 H115       31.4795   27.9677    7.2153 H         1 UNK         0.3010 
    116 H116       33.0179   28.9420    8.4835 H         1 UNK         0.0829 
    117 H117       30.9730   29.7700    9.5618 H         1 UNK         0.0813 
    118 H118       32.2125   31.0006    9.6857 H         1 UNK         0.0813 
    119 H119       30.9078   31.1747    8.5101 H         1 UNK         0.0813 
    120 H120       32.4465   32.2274    7.7305 H         1 UNK         0.3038 
    121 H121       35.0850   32.8661    7.0880 H         1 UNK         0.0769 
    122 H122       32.5037   34.4129    6.4907 H         1 UNK         0.0811 
    123 H123       34.1218   35.1004    6.4820 H         1 UNK         0.0811 
    124 H124       33.4433   34.4947    7.9823 H         1 UNK         0.0811 
    125 H125       32.6371   31.6376    4.9202 H         1 UNK         0.3204 
    126 H126       33.7674   32.5189    2.4352 H         1 UNK         0.0748 
    127 H127       31.4466   31.7157    2.6258 H         1 UNK         0.0771 
    128 H128       32.3199   30.7184    1.4749 H         1 UNK         0.0771 
    129 H129       31.9923   30.1055    3.0912 H         1 UNK         0.0771 
    130 H130       34.9393   30.1440    4.7182 H         1 UNK         0.2980 
    131 H131       37.0540   29.4132    2.8223 H         1 UNK         0.0545 
    132 H132       38.1457   30.5968    6.2994 H         1 UNK         0.3459 
    133 H133       36.7841   31.1727    5.3704 H         1 UNK         0.3459 
    134 H134       35.5337   27.5521    2.5300 H         1 UNK         0.0616 
    135 H135       36.9642   27.0286    3.3363 H         1 UNK         0.0616 
    136 H136       33.2326   28.3381    4.2945 H         1 UNK         0.0634 
    137 H137       32.7275   26.9174    5.1642 H         1 UNK         0.0634 
@<TRIPOS>BOND
     1    1    2 1    
     2    1   72 1    
     3    1   73 1    
     4    1   74 1    
     5    2    3 2    
     6    2    4 am   BACKBONE|DICT|INTERRES
     7    4    5 1    
     8    4   75 1    
     9    5    6 1    
    10    5   35 1    
    11    5   76 1    
    12    6    7 1    
    13    6   77 1    
    14    6   78 1    
    15    7    8 1    
    16    8    9 1    
    17    8   79 1    
    18    8   80 1    
    19    9   10 ar   
    20    9   14 ar   
    21   10   11 ar   
    22   10   81 1    
    23   11   12 ar   
    24   11   71 1    
    25   12   13 ar   
    26   12   82 1    
    27   13   14 ar   
    28   13   15 1    
    29   14   83 1    
    30   15   16 1    
    31   15   84 1    
    32   15   85 1    
    33   16   17 1    
    34   17   18 1    
    35   17   86 1    
    36   17   87 1    
    37   18   19 1    
    38   18   37 1    
    39   18   88 1    
    40   19   20 am   BACKBONE|DICT|INTERRES
    41   19   89 1    
    42   20   21 2    
    43   20   22 1    
    44   22   23 1    
    45   22   24 1    
    46   22   90 1    
    47   23   91 1    
    48   23   92 1    
    49   23   93 1    
    50   24   25 am   BACKBONE|DICT|INTERRES
    51   24   94 1    
    52   25   26 2    
    53   25   27 1    
    54   27   28 1    
    55   27   29 1    
    56   27   95 1    
    57   28   96 1    
    58   28   97 1    
    59   28   98 1    
    60   29   30 am   BACKBONE|DICT|INTERRES
    61   29   99 1    
    62   30   31 2    
    63   30   32 1    
    64   32   33 1    
    65   32   34 1    
    66   32  100 1    
    67   33  101 1    
    68   33  102 1    
    69   33  103 1    
    70   34   35 am   BACKBONE|DICT|INTERRES
    71   34  104 1    
    72   35   36 2    
    73   37   38 2    
    74   37   39 am   BACKBONE|DICT|INTERRES
    75   39   40 1    
    76   39  105 1    
    77   40   41 1    
    78   40   42 1    
    79   40  106 1    
    80   41  107 1    
    81   41  108 1    
    82   41  109 1    
    83   42   43 2    
    84   42   44 am   BACKBONE|DICT|INTERRES
    85   44   45 1    
    86   44  110 1    
    87   45   46 1    
    88   45   47 1    
    89   45  111 1    
    90   46  112 1    
    91   46  113 1    
    92   46  114 1    
    93   47   48 2    
    94   47   49 am   BACKBONE|DICT|INTERRES
    95   49   50 1    
    96   49  115 1    
    97   50   51 1    
    98   50   52 1    
    99   50  116 1    
   100   51  117 1    
   101   51  118 1    
   102   51  119 1    
   103   52   53 2    
   104   52   54 am   BACKBONE|DICT|INTERRES
   105   54   55 1    
   106   54  120 1    
   107   55   56 1    
   108   55   57 1    
   109   55  121 1    
   110   56  122 1    
   111   56  123 1    
   112   56  124 1    
   113   57   58 2    
   114   57   59 am   BACKBONE|DICT|INTERRES
   115   59   60 1    
   116   59  125 1    
   117   60   61 1    
   118   60   62 1    
   119   60  126 1    
   120   61  127 1    
   121   61  128 1    
   122   61  129 1    
   123   62   63 2    
   124   62   64 am   BACKBONE|DICT|INTERRES
   125   64   65 1    
   126   64  130 1    
   127   65   66 1    
   128   65   69 1    
   129   65  131 1    
   130   66   67 am   BACKBONE|DICT|INTERRES
   131   66   68 2    
   132   67  132 1    
   133   67  133 1    
   134   69   70 1    
   135   69  134 1    
   136   69  135 1    
   137   70   71 1    
   138   71  136 1    
   139   71  137 1    
@<TRIPOS>SUBSTRUCTURE
     1 UNK         1 GROUP             0       ****    0 ROOT    
