@<TRIPOS>MOLECULE
3R136
137   139    1
SMALL
USER_CHARGES


@<TRIPOS>ATOM
      1 CA         25.6506   23.7146   -0.7208 C.3       0 UNK        -0.1979 
      2 C          26.8552   23.3344    0.1269 C.2       0 UNK         0.4864 
      3 O          26.7417   22.4744    1.0018 O.2       0 UNK        -0.5359 
      4 N          27.9976   23.9927   -0.1093 N.am      1 UNK        -0.4318 
      5 CA         29.2813   23.8193    0.5779 C.3       1 UNK         0.0824 
      6 C6         29.9381   22.4414    0.2825 C.3       12 UNK        -0.0944 
      7 S7         30.6107   22.4339   -1.4168 S.3       12 UNK        -0.2672 
      8 C8         32.4051   22.6561   -1.1579 C.3       12 UNK         0.0333 
      9 C9         32.7313   23.7530   -0.1512 C.ar      12 UNK        -0.0807 
     10 C10        33.0988   23.4058    1.1505 C.ar      12 UNK        -0.0894 
     11 C11        33.3719   24.3823    2.1091 C.ar      12 UNK        -0.0804 
     12 C12        33.2904   25.7327    1.7392 C.ar      12 UNK        -0.0824 
     13 C13        32.9354   26.1009    0.4363 C.ar      12 UNK        -0.0762 
     14 C14        32.6642   25.1029   -0.5081 C.ar      12 UNK        -0.0782 
     15 C15        32.9085   27.5775    0.0493 C.3       12 UNK         0.0230 
     16 S16        31.4194   28.0728   -0.8810 S.3       12 UNK        -0.2608 
     17 C17        30.1264   27.9760    0.4010 C.3       12 UNK        -0.0989 
     18 CA         28.9020   28.8732    0.0812 C.3       5 UNK         0.0716 
     19 N          27.7437   28.5619    0.9115 N.am      5 UNK        -0.4135 
     20 C          26.9266   27.5210    0.7520 C.2       4 UNK         0.5031 
     21 O          27.0576   26.6769   -0.1342 O.2       4 UNK        -0.5229 
     22 CA         25.7378   27.4228    1.7130 C.3       4 UNK         0.0329 
     23 CB         24.4241   27.7067    0.9556 C.3       4 UNK        -0.2001 
     24 N          25.7207   26.0912    2.3195 N.am      4 UNK        -0.4303 
     25 C          24.9348   25.7122    3.3378 C.2       3 UNK         0.5044 
     26 O          24.1470   26.4665    3.9092 O.2       3 UNK        -0.5152 
     27 CA         25.0261   24.2489    3.8061 C.3       3 UNK         0.0319 
     28 CB         24.0529   23.3614    3.0137 C.3       3 UNK        -0.2001 
     29 N          26.3827   23.7056    3.7098 N.am      3 UNK        -0.4354 
     30 C          27.3271   23.8961    4.6452 C.2       2 UNK         0.4964 
     31 O          27.1186   24.4797    5.7084 O.2       2 UNK        -0.5047 
     32 CA         28.7399   23.3428    4.3671 C.3       2 UNK         0.0288 
     33 CB         28.9559   22.0072    5.0964 C.3       2 UNK        -0.2113 
     34 N          29.0281   23.1631    2.9423 N.am      2 UNK        -0.4145 
     35 C          29.1366   24.1738    2.0702 C.2       1 UNK         0.5006 
     36 O          29.0713   25.3592    2.3992 O.2       1 UNK        -0.5103 
     37 C          29.1833   30.3682    0.2884 C.2       5 UNK         0.5055 
     38 O          28.9314   30.8759    1.3862 O.2       5 UNK        -0.5220 
     39 N          29.6617   31.0392   -0.7664 N.am      6 UNK        -0.4450 
     40 CA         29.9216   32.4809   -0.7850 C.3       6 UNK         0.0367 
     41 CB         29.4613   33.0546   -2.1355 C.3       6 UNK        -0.1929 
     42 C          31.3986   32.8298   -0.5415 C.2       6 UNK         0.5070 
     43 O          31.6756   33.9370   -0.0802 O.2       6 UNK        -0.5237 
     44 N          32.3232   31.9083   -0.8574 N.am      7 UNK        -0.4739 
     45 CA         33.7709   32.1022   -0.6800 C.3       7 UNK         0.0276 
     46 CB         34.5352   31.0125   -1.4475 C.3       7 UNK        -0.1927 
     47 C          34.1892   32.1245    0.8009 C.2       7 UNK         0.5013 
     48 O          35.1092   32.8544    1.1712 O.2       7 UNK        -0.5193 
     49 N          33.4689   31.3501    1.6138 N.am      8 UNK        -0.4253 
     50 CA         33.4505   31.3849    3.0668 C.3       8 UNK         0.0242 
     51 CB         34.4113   30.3282    3.6365 C.3       8 UNK        -0.2000 
     52 C          31.9941   31.0892    3.4219 C.2       8 UNK         0.4948 
     53 O          31.4730   30.0922    2.9168 O.2       8 UNK        -0.5275 
     54 N          31.3639   31.9744    4.2073 N.am      9 UNK        -0.4246 
     55 CA         29.9247   32.0270    4.5014 C.3       9 UNK         0.0261 
     56 CB         29.6509   33.2336    5.4182 C.3       9 UNK        -0.1959 
     57 C          29.3610   30.7213    5.0948 C.2       9 UNK         0.5033 
     58 O          29.3300   30.5705    6.3176 O.2       9 UNK        -0.5390 
     59 N          28.9535   29.8050    4.2036 N.am      10 UNK        -0.4215 
     60 CA         28.5903   28.4055    4.4734 C.3       10 UNK         0.0240 
     61 CB         27.2750   28.3147    5.2756 C.3       10 UNK        -0.1982 
     62 C          29.7530   27.6164    5.1114 C.2       10 UNK         0.4970 
     63 O          29.5413   26.8469    6.0500 O.2       10 UNK        -0.4916 
     64 N          30.9651   27.8441    4.5890 N.am      11 UNK        -0.4279 
     65 CA         32.2377   27.3275    5.1026 C.3       11 UNK         0.1003 
     66 C          32.6492   27.9798    6.4583 C.2       11 UNK         0.5709 
     67 N          33.4348   27.3053    7.2872 N.am      11 UNK        -0.7358 
     68 O          32.3181   29.1290    6.7398 O.2       11 UNK        -0.4999 
     69 C69        32.3129   25.7716    5.0622 C.3       12 UNK        -0.0954 
     70 S70        34.0162   25.1832    4.7790 S.3       12 UNK        -0.2268 
     71 C71        33.7590   23.9001    3.5099 C.3       12 UNK         0.0203 
     72 H72        24.9651   24.3373   -0.1474 H         1 UNK         0.0888 
     73 H73        25.9463   24.2708   -1.6104 H         1 UNK         0.0888 
     74 H74        25.1172   22.8208   -1.0430 H         1 UNK         0.0888 
     75 H75        27.9617   24.7851   -0.7397 H         1 UNK         0.3017 
     76 H76        29.9386   24.5924    0.1793 H         1 UNK         0.0873 
     77 H77        30.7323   22.2048    0.9890 H         1 UNK         0.0745 
     78 H78        29.2167   21.6282    0.3728 H         1 UNK         0.0745 
     79 H79        32.8319   21.7048   -0.8359 H         1 UNK         0.0705 
     80 H80        32.8739   22.8879   -2.1153 H         1 UNK         0.0705 
     81 H81        33.1617   22.3613    1.4254 H         1 UNK         0.1334 
     82 H82        33.5175   26.5080    2.4545 H         1 UNK         0.1417 
     83 H83        32.3931   25.3760   -1.5190 H         1 UNK         0.1562 
     84 H84        33.7841   27.7750   -0.5693 H         1 UNK         0.0748 
     85 H85        33.0025   28.2167    0.9290 H         1 UNK         0.0748 
     86 H86        30.5425   28.2072    1.3823 H         1 UNK         0.0940 
     87 H87        29.8163   26.9337    0.4505 H         1 UNK         0.0940 
     88 H88        28.6085   28.7226   -0.9604 H         1 UNK         0.0703 
     89 H89        27.5395   29.2751    1.5997 H         1 UNK         0.3081 
     90 H90        25.8570   28.1619    2.5073 H         1 UNK         0.0719 
     91 H91        24.2265   26.9481    0.1973 H         1 UNK         0.0809 
     92 H92        23.5666   27.7388    1.6273 H         1 UNK         0.0809 
     93 H93        24.4663   28.6714    0.4482 H         1 UNK         0.0809 
     94 H94        26.3862   25.4365    1.9318 H         1 UNK         0.2990 
     95 H95        24.7100   24.2211    4.8514 H         1 UNK         0.0690 
     96 H96        24.0638   22.3356    3.3825 H         1 UNK         0.0788 
     97 H97        24.2933   23.3361    1.9518 H         1 UNK         0.0788 
     98 H98        23.0295   23.7277    3.1063 H         1 UNK         0.0788 
     99 H99        26.6140   23.1895    2.8653 H         1 UNK         0.2993 
    100 H100       29.4513   24.0705    4.7651 H         1 UNK         0.0949 
    101 H101       28.2812   21.2328    4.7291 H         1 UNK         0.0767 
    102 H102       29.9788   21.6499    4.9750 H         1 UNK         0.0767 
    103 H103       28.7771   22.1151    6.1673 H         1 UNK         0.0767 
    104 H104       29.0308   22.2164    2.5908 H         1 UNK         0.3013 
    105 H105       29.8322   30.5337   -1.6247 H         1 UNK         0.3121 
    106 H106       29.3400   32.9695    0.0002 H         1 UNK         0.0774 
    107 H107       30.0084   32.6163   -2.9712 H         1 UNK         0.0815 
    108 H108       29.6174   34.1337   -2.1746 H         1 UNK         0.0815 
    109 H109       28.3983   32.8775   -2.2996 H         1 UNK         0.0815 
    110 H110       32.0209   31.0209   -1.2319 H         1 UNK         0.2987 
    111 H111       34.0385   33.0708   -1.1087 H         1 UNK         0.0949 
    112 H112       34.3040   30.0165   -1.0724 H         1 UNK         0.0806 
    113 H113       34.2983   31.0350   -2.5113 H         1 UNK         0.0806 
    114 H114       35.6129   31.1536   -1.3535 H         1 UNK         0.0806 
    115 H115       32.7088   30.8129    1.2157 H         1 UNK         0.3010 
    116 H116       33.7294   32.3775    3.4272 H         1 UNK         0.0829 
    117 H117       34.3314   30.2710    4.7228 H         1 UNK         0.0813 
    118 H118       34.2032   29.3364    3.2348 H         1 UNK         0.0813 
    119 H119       35.4467   30.5707    3.3970 H         1 UNK         0.0813 
    120 H120       31.9077   32.7363    4.5854 H         1 UNK         0.3038 
    121 H121       29.4071   32.2167    3.5598 H         1 UNK         0.0769 
    122 H122       30.1979   33.1591    6.3590 H         1 UNK         0.0811 
    123 H123       28.5903   33.3040    5.6634 H         1 UNK         0.0811 
    124 H124       29.9328   34.1709    4.9382 H         1 UNK         0.0811 
    125 H125       29.0969   30.0518    3.2270 H         1 UNK         0.3204 
    126 H126       28.4177   27.9336    3.5067 H         1 UNK         0.0748 
    127 H127       26.9389   27.2799    5.3527 H         1 UNK         0.0771 
    128 H128       27.3929   28.6932    6.2913 H         1 UNK         0.0771 
    129 H129       26.4749   28.8799    4.7984 H         1 UNK         0.0771 
    130 H130       31.0524   28.5684    3.8798 H         1 UNK         0.2980 
    131 H131       32.9658   27.7124    4.3908 H         1 UNK         0.0545 
    132 H132       33.7241   27.7322    8.1529 H         1 UNK         0.3459 
    133 H133       33.7547   26.3801    7.0436 H         1 UNK         0.3459 
    134 H134       31.9170   25.3262    5.9763 H         1 UNK         0.0616 
    135 H135       31.6836   25.3920    4.2553 H         1 UNK         0.0616 
    136 H136       34.6830   23.3261    3.4295 H         1 UNK         0.0634 
    137 H137       32.9978   23.2077    3.8734 H         1 UNK         0.0634 
@<TRIPOS>BOND
     1    1    2 1    
     2    1   72 1    
     3    1   73 1    
     4    1   74 1    
     5    2    3 2    
     6    2    4 am   BACKBONE|DICT|INTERRES
     7    4    5 1    
     8    4   75 1    
     9    5    6 1    
    10    5   35 1    
    11    5   76 1    
    12    6    7 1    
    13    6   77 1    
    14    6   78 1    
    15    7    8 1    
    16    8    9 1    
    17    8   79 1    
    18    8   80 1    
    19    9   10 ar   
    20    9   14 ar   
    21   10   11 ar   
    22   10   81 1    
    23   11   12 ar   
    24   11   71 1    
    25   12   13 ar   
    26   12   82 1    
    27   13   14 ar   
    28   13   15 1    
    29   14   83 1    
    30   15   16 1    
    31   15   84 1    
    32   15   85 1    
    33   16   17 1    
    34   17   18 1    
    35   17   86 1    
    36   17   87 1    
    37   18   19 1    
    38   18   37 1    
    39   18   88 1    
    40   19   20 am   BACKBONE|DICT|INTERRES
    41   19   89 1    
    42   20   21 2    
    43   20   22 1    
    44   22   23 1    
    45   22   24 1    
    46   22   90 1    
    47   23   91 1    
    48   23   92 1    
    49   23   93 1    
    50   24   25 am   BACKBONE|DICT|INTERRES
    51   24   94 1    
    52   25   26 2    
    53   25   27 1    
    54   27   28 1    
    55   27   29 1    
    56   27   95 1    
    57   28   96 1    
    58   28   97 1    
    59   28   98 1    
    60   29   30 am   BACKBONE|DICT|INTERRES
    61   29   99 1    
    62   30   31 2    
    63   30   32 1    
    64   32   33 1    
    65   32   34 1    
    66   32  100 1    
    67   33  101 1    
    68   33  102 1    
    69   33  103 1    
    70   34   35 am   BACKBONE|DICT|INTERRES
    71   34  104 1    
    72   35   36 2    
    73   37   38 2    
    74   37   39 am   BACKBONE|DICT|INTERRES
    75   39   40 1    
    76   39  105 1    
    77   40   41 1    
    78   40   42 1    
    79   40  106 1    
    80   41  107 1    
    81   41  108 1    
    82   41  109 1    
    83   42   43 2    
    84   42   44 am   BACKBONE|DICT|INTERRES
    85   44   45 1    
    86   44  110 1    
    87   45   46 1    
    88   45   47 1    
    89   45  111 1    
    90   46  112 1    
    91   46  113 1    
    92   46  114 1    
    93   47   48 2    
    94   47   49 am   BACKBONE|DICT|INTERRES
    95   49   50 1    
    96   49  115 1    
    97   50   51 1    
    98   50   52 1    
    99   50  116 1    
   100   51  117 1    
   101   51  118 1    
   102   51  119 1    
   103   52   53 2    
   104   52   54 am   BACKBONE|DICT|INTERRES
   105   54   55 1    
   106   54  120 1    
   107   55   56 1    
   108   55   57 1    
   109   55  121 1    
   110   56  122 1    
   111   56  123 1    
   112   56  124 1    
   113   57   58 2    
   114   57   59 am   BACKBONE|DICT|INTERRES
   115   59   60 1    
   116   59  125 1    
   117   60   61 1    
   118   60   62 1    
   119   60  126 1    
   120   61  127 1    
   121   61  128 1    
   122   61  129 1    
   123   62   63 2    
   124   62   64 am   BACKBONE|DICT|INTERRES
   125   64   65 1    
   126   64  130 1    
   127   65   66 1    
   128   65   69 1    
   129   65  131 1    
   130   66   67 am   BACKBONE|DICT|INTERRES
   131   66   68 2    
   132   67  132 1    
   133   67  133 1    
   134   69   70 1    
   135   69  134 1    
   136   69  135 1    
   137   70   71 1    
   138   71  136 1    
   139   71  137 1    
@<TRIPOS>SUBSTRUCTURE
     1 UNK         1 GROUP             0       ****    0 ROOT    
