@<TRIPOS>MOLECULE
3R136
137   139    1
SMALL
USER_CHARGES


@<TRIPOS>ATOM
      1 CA         31.4683   19.7024   -2.1278 C.3       0 UNK        -0.1979 
      2 C          30.7690   20.8308   -1.3854 C.2       0 UNK         0.4864 
      3 O          30.8310   21.9830   -1.8193 O.2       0 UNK        -0.5359 
      4 N          30.0896   20.5134   -0.2752 N.am      1 UNK        -0.4318 
      5 CA         29.3707   21.4548    0.5944 C.3       1 UNK         0.0824 
      6 C6         29.1969   20.8802    2.0291 C.3       12 UNK        -0.0944 
      7 S7         30.7913   20.5399    2.8618 S.3       12 UNK        -0.2672 
      8 C8         30.5885   21.3676    4.4820 C.3       12 UNK         0.0333 
      9 C9         31.0282   22.8316    4.4984 C.ar      12 UNK        -0.0807 
     10 C10        31.7691   23.3304    5.5767 C.ar      12 UNK        -0.0894 
     11 C11        32.1566   24.6749    5.6146 C.ar      12 UNK        -0.0804 
     12 C12        31.7943   25.5273    4.5671 C.ar      12 UNK        -0.0824 
     13 C13        31.0564   25.0450    3.4857 C.ar      12 UNK        -0.0762 
     14 C14        30.6757   23.7024    3.4642 C.ar      12 UNK        -0.0782 
     15 C15        30.6899   25.9602    2.3264 C.3       12 UNK         0.0230 
     16 S16        28.9082   25.9214    1.9559 S.3       12 UNK        -0.2608 
     17 C17        28.2291   26.9495    3.3030 C.3       12 UNK        -0.0989 
     18 CA         28.1716   28.4424    2.9048 C.3       5 UNK         0.0716 
     19 N          27.4398   28.6543    1.6561 N.am      5 UNK        -0.4135 
     20 C          27.4160   29.7847    0.9442 C.2       4 UNK         0.5031 
     21 O          27.9718   30.8256    1.3032 O.2       4 UNK        -0.5229 
     22 CA         26.7191   29.7091   -0.4303 C.3       4 UNK         0.0329 
     23 CB         26.6858   31.0725   -1.1461 C.3       4 UNK        -0.2001 
     24 N          27.3782   28.7317   -1.3055 N.am      4 UNK        -0.4303 
     25 C          27.2751   27.3999   -1.1957 C.2       3 UNK         0.5044 
     26 O          26.5155   26.8484   -0.3941 O.2       3 UNK        -0.5152 
     27 CA         28.2163   26.5656   -2.0871 C.3       3 UNK         0.0319 
     28 CB         29.6939   26.8964   -1.8001 C.3       3 UNK        -0.2001 
     29 N          28.0210   25.1272   -1.8895 N.am      3 UNK        -0.4354 
     30 C          27.0315   24.4027   -2.4296 C.2       2 UNK         0.4964 
     31 O          26.2049   24.8673   -3.2169 O.2       2 UNK        -0.5047 
     32 CA         26.9468   22.9118   -2.0484 C.3       2 UNK         0.0288 
     33 CB         26.8569   22.0198   -3.3007 C.3       2 UNK        -0.2113 
     34 N          28.0896   22.4677   -1.2428 N.am      2 UNK        -0.4145 
     35 C          28.0249   21.8984   -0.0326 C.2       1 UNK         0.5006 
     36 O          26.9671   21.7006    0.5691 O.2       1 UNK        -0.5103 
     37 C          27.6016   29.3145    4.0351 C.2       5 UNK         0.5055 
     38 O          26.3824   29.3606    4.2114 O.2       5 UNK        -0.5220 
     39 N          28.4944   30.0203    4.7412 N.am      6 UNK        -0.4450 
     40 CA         28.2640   31.0180    5.7955 C.3       6 UNK         0.0367 
     41 CB         27.4150   30.4599    6.9548 C.3       6 UNK        -0.1929 
     42 C          27.7055   32.3562    5.2768 C.2       6 UNK         0.5070 
     43 O          28.0173   33.3954    5.8588 O.2       6 UNK        -0.5237 
     44 N          26.9214   32.3270    4.1914 N.am      7 UNK        -0.4739 
     45 CA         26.4202   33.5065    3.4848 C.3       7 UNK         0.0276 
     46 CB         25.2972   33.0872    2.5229 C.3       7 UNK        -0.1927 
     47 C          27.5334   34.2562    2.7329 C.2       7 UNK         0.5013 
     48 O          27.5328   35.4882    2.7318 O.2       7 UNK        -0.5193 
     49 N          28.4612   33.5065    2.1242 N.am      8 UNK        -0.4253 
     50 CA         29.6186   34.0347    1.4033 C.3       8 UNK         0.0242 
     51 CB         29.2481   34.3162   -0.0639 C.3       8 UNK        -0.2000 
     52 C          30.8317   33.0991    1.4958 C.2       8 UNK         0.4948 
     53 O          31.9417   33.5855    1.7177 O.2       8 UNK        -0.5275 
     54 N          30.6196   31.7884    1.3136 N.am      9 UNK        -0.4246 
     55 CA         31.6732   30.7724    1.3673 C.3       9 UNK         0.0261 
     56 CB         31.2778   29.5814    0.4762 C.3       9 UNK        -0.1959 
     57 C          31.9335   30.3176    2.8115 C.2       9 UNK         0.5033 
     58 O          31.0192   30.3340    3.6390 O.2       9 UNK        -0.5390 
     59 N          33.1652   29.8773    3.0777 N.am      10 UNK        -0.4215 
     60 CA         33.6174   29.3377    4.3568 C.3       10 UNK         0.0240 
     61 CB         34.0948   30.4817    5.2693 C.3       10 UNK        -0.1982 
     62 C          34.7421   28.3324    4.0838 C.2       10 UNK         0.4970 
     63 O          35.3741   28.4059    3.0261 O.2       10 UNK        -0.4916 
     64 N          34.9673   27.4234    5.0381 N.am      11 UNK        -0.4279 
     65 CA         35.9753   26.3526    4.9616 C.3       11 UNK         0.1003 
     66 C          37.2300   26.5933    5.8511 C.2       11 UNK         0.5709 
     67 N          37.3436   27.7174    6.5497 N.am      11 UNK        -0.7358 
     68 O          38.1307   25.7581    5.8890 O.2       11 UNK        -0.4999 
     69 C69        35.3303   24.9535    5.1616 C.3       12 UNK        -0.0954 
     70 S70        34.6780   24.6109    6.8377 S.3       12 UNK        -0.2268 
     71 C71        32.9580   25.2183    6.7892 C.3       12 UNK         0.0203 
     72 H72        32.5376   19.9022   -2.1910 H         1 UNK         0.0888 
     73 H73        31.3316   18.7417   -1.6315 H         1 UNK         0.0888 
     74 H74        31.0758   19.6204   -3.1410 H         1 UNK         0.0888 
     75 H75        30.0635   19.5492    0.0249 H         1 UNK         0.3017 
     76 H76        29.9780   22.3584    0.6668 H         1 UNK         0.0873 
     77 H77        28.6135   21.5657    2.6465 H         1 UNK         0.0745 
     78 H78        28.6254   19.9506    1.9999 H         1 UNK         0.0745 
     79 H79        31.1728   20.8023    5.2097 H         1 UNK         0.0705 
     80 H80        29.5508   21.2975    4.8104 H         1 UNK         0.0705 
     81 H81        32.0472   22.6750    6.3910 H         1 UNK         0.1334 
     82 H82        32.0914   26.5651    4.5898 H         1 UNK         0.1417 
     83 H83        30.0927   23.3462    2.6332 H         1 UNK         0.1562 
     84 H84        31.2377   25.6356    1.4408 H         1 UNK         0.0748 
     85 H85        30.9984   26.9890    2.5192 H         1 UNK         0.0748 
     86 H86        28.8297   26.8084    4.2039 H         1 UNK         0.0940 
     87 H87        27.2305   26.5782    3.5416 H         1 UNK         0.0940 
     88 H88        29.1954   28.7646    2.7222 H         1 UNK         0.0703 
     89 H89        26.9945   27.8356    1.2531 H         1 UNK         0.3081 
     90 H90        25.6877   29.3946   -0.2571 H         1 UNK         0.0719 
     91 H91        27.6894   31.4334   -1.3734 H         1 UNK         0.0809 
     92 H92        26.1309   31.0145   -2.0826 H         1 UNK         0.0809 
     93 H93        26.1991   31.8296   -0.5306 H         1 UNK         0.0809 
     94 H94        28.0335   29.1081   -1.9752 H         1 UNK         0.2990 
     95 H95        27.9999   26.8122   -3.1287 H         1 UNK         0.0690 
     96 H96        30.3612   26.2777   -2.4007 H         1 UNK         0.0788 
     97 H97        29.9488   26.7392   -0.7519 H         1 UNK         0.0788 
     98 H98        29.9270   27.9344   -2.0389 H         1 UNK         0.0788 
     99 H99        28.6134   24.6858   -1.2027 H         1 UNK         0.2993 
    100 H100       26.0203   22.7987   -1.4816 H         1 UNK         0.0949 
    101 H101       27.7438   22.1177   -3.9281 H         1 UNK         0.0767 
    102 H102       26.7527   20.9688   -3.0300 H         1 UNK         0.0767 
    103 H103       25.9919   22.2811   -3.9118 H         1 UNK         0.0767 
    104 H104       29.0108   22.5394   -1.6710 H         1 UNK         0.3013 
    105 H105       29.4646   29.9911    4.4189 H         1 UNK         0.3121 
    106 H106       29.2550   31.2382    6.1960 H         1 UNK         0.0774 
    107 H107       27.3852   31.1667    7.7849 H         1 UNK         0.0815 
    108 H108       26.3830   30.2743    6.6564 H         1 UNK         0.0815 
    109 H109       27.8289   29.5272    7.3375 H         1 UNK         0.0815 
    110 H110       26.6825   31.4194    3.8099 H         1 UNK         0.2987 
    111 H111       25.9996   34.1931    4.2230 H         1 UNK         0.0949 
    112 H112       24.9055   33.9488    1.9805 H         1 UNK         0.0806 
    113 H113       25.6464   32.3667    1.7834 H         1 UNK         0.0806 
    114 H114       24.4630   32.6366    3.0608 H         1 UNK         0.0806 
    115 H115       28.3494   32.4963    2.1353 H         1 UNK         0.3010 
    116 H116       29.9190   34.9777    1.8660 H         1 UNK         0.0829 
    117 H117       28.4584   35.0641   -0.1370 H         1 UNK         0.0813 
    118 H118       30.1070   34.6968   -0.6184 H         1 UNK         0.0813 
    119 H119       28.9031   33.4150   -0.5710 H         1 UNK         0.0813 
    120 H120       29.6685   31.4474    1.1942 H         1 UNK         0.3038 
    121 H121       32.5968   31.1985    0.9687 H         1 UNK         0.0769 
    122 H122       30.3531   29.1094    0.8025 H         1 UNK         0.0811 
    123 H123       32.0520   28.8130    0.4795 H         1 UNK         0.0811 
    124 H124       31.1408   29.8944   -0.5588 H         1 UNK         0.0811 
    125 H125       33.8576   29.8193    2.3399 H         1 UNK         0.3204 
    126 H126       32.7918   28.8112    4.8395 H         1 UNK         0.0748 
    127 H127       34.4265   30.1040    6.2371 H         1 UNK         0.0771 
    128 H128       34.9282   31.0286    4.8263 H         1 UNK         0.0771 
    129 H129       33.2926   31.1950    5.4607 H         1 UNK         0.0771 
    130 H130       34.4400   27.4606    5.8972 H         1 UNK         0.2980 
    131 H131       36.3835   26.3389    3.9496 H         1 UNK         0.0545 
    132 H132       36.6291   28.4250    6.5082 H         1 UNK         0.3459 
    133 H133       38.1657   27.8634    7.1143 H         1 UNK         0.3459 
    134 H134       36.0687   24.1801    4.9439 H         1 UNK         0.0616 
    135 H135       34.5466   24.8005    4.4202 H         1 UNK         0.0616 
    136 H136       32.9649   26.3085    6.7814 H         1 UNK         0.0634 
    137 H137       32.4642   24.9308    7.7185 H         1 UNK         0.0634 
@<TRIPOS>BOND
     1    1    2 1    
     2    1   72 1    
     3    1   73 1    
     4    1   74 1    
     5    2    3 2    
     6    2    4 am   BACKBONE|DICT|INTERRES
     7    4    5 1    
     8    4   75 1    
     9    5    6 1    
    10    5   35 1    
    11    5   76 1    
    12    6    7 1    
    13    6   77 1    
    14    6   78 1    
    15    7    8 1    
    16    8    9 1    
    17    8   79 1    
    18    8   80 1    
    19    9   10 ar   
    20    9   14 ar   
    21   10   11 ar   
    22   10   81 1    
    23   11   12 ar   
    24   11   71 1    
    25   12   13 ar   
    26   12   82 1    
    27   13   14 ar   
    28   13   15 1    
    29   14   83 1    
    30   15   16 1    
    31   15   84 1    
    32   15   85 1    
    33   16   17 1    
    34   17   18 1    
    35   17   86 1    
    36   17   87 1    
    37   18   19 1    
    38   18   37 1    
    39   18   88 1    
    40   19   20 am   BACKBONE|DICT|INTERRES
    41   19   89 1    
    42   20   21 2    
    43   20   22 1    
    44   22   23 1    
    45   22   24 1    
    46   22   90 1    
    47   23   91 1    
    48   23   92 1    
    49   23   93 1    
    50   24   25 am   BACKBONE|DICT|INTERRES
    51   24   94 1    
    52   25   26 2    
    53   25   27 1    
    54   27   28 1    
    55   27   29 1    
    56   27   95 1    
    57   28   96 1    
    58   28   97 1    
    59   28   98 1    
    60   29   30 am   BACKBONE|DICT|INTERRES
    61   29   99 1    
    62   30   31 2    
    63   30   32 1    
    64   32   33 1    
    65   32   34 1    
    66   32  100 1    
    67   33  101 1    
    68   33  102 1    
    69   33  103 1    
    70   34   35 am   BACKBONE|DICT|INTERRES
    71   34  104 1    
    72   35   36 2    
    73   37   38 2    
    74   37   39 am   BACKBONE|DICT|INTERRES
    75   39   40 1    
    76   39  105 1    
    77   40   41 1    
    78   40   42 1    
    79   40  106 1    
    80   41  107 1    
    81   41  108 1    
    82   41  109 1    
    83   42   43 2    
    84   42   44 am   BACKBONE|DICT|INTERRES
    85   44   45 1    
    86   44  110 1    
    87   45   46 1    
    88   45   47 1    
    89   45  111 1    
    90   46  112 1    
    91   46  113 1    
    92   46  114 1    
    93   47   48 2    
    94   47   49 am   BACKBONE|DICT|INTERRES
    95   49   50 1    
    96   49  115 1    
    97   50   51 1    
    98   50   52 1    
    99   50  116 1    
   100   51  117 1    
   101   51  118 1    
   102   51  119 1    
   103   52   53 2    
   104   52   54 am   BACKBONE|DICT|INTERRES
   105   54   55 1    
   106   54  120 1    
   107   55   56 1    
   108   55   57 1    
   109   55  121 1    
   110   56  122 1    
   111   56  123 1    
   112   56  124 1    
   113   57   58 2    
   114   57   59 am   BACKBONE|DICT|INTERRES
   115   59   60 1    
   116   59  125 1    
   117   60   61 1    
   118   60   62 1    
   119   60  126 1    
   120   61  127 1    
   121   61  128 1    
   122   61  129 1    
   123   62   63 2    
   124   62   64 am   BACKBONE|DICT|INTERRES
   125   64   65 1    
   126   64  130 1    
   127   65   66 1    
   128   65   69 1    
   129   65  131 1    
   130   66   67 am   BACKBONE|DICT|INTERRES
   131   66   68 2    
   132   67  132 1    
   133   67  133 1    
   134   69   70 1    
   135   69  134 1    
   136   69  135 1    
   137   70   71 1    
   138   71  136 1    
   139   71  137 1    
@<TRIPOS>SUBSTRUCTURE
     1 UNK         1 GROUP             0       ****    0 ROOT    
