@<TRIPOS>MOLECULE
3R136
137   139    1
SMALL
USER_CHARGES


@<TRIPOS>ATOM
      1 CA         29.4036   24.3648    4.5837 C.3       0 UNK        -0.1979 
      2 C          29.5698   25.2012    3.3265 C.2       0 UNK         0.4864 
      3 O          28.7702   25.0822    2.3939 O.2       0 UNK        -0.5359 
      4 N          30.5941   26.0646    3.3020 N.am      1 UNK        -0.4318 
      5 CA         30.9423   26.8911    2.1456 C.3       1 UNK         0.0824 
      6 C6         32.3955   27.4351    2.2165 C.3       12 UNK        -0.0944 
      7 S7         33.1675   27.6172    0.5675 S.3       12 UNK        -0.2672 
      8 C8         34.1908   26.1077    0.4092 C.3       12 UNK         0.0333 
      9 C9         33.3842   24.8502    0.6988 C.ar      12 UNK        -0.0807 
     10 C10        33.6664   24.0800    1.8278 C.ar      12 UNK        -0.0894 
     11 C11        32.8122   23.0412    2.2181 C.ar      12 UNK        -0.0804 
     12 C12        31.6948   22.7580    1.4239 C.ar      12 UNK        -0.0824 
     13 C13        31.4228   23.4880    0.2604 C.ar      12 UNK        -0.0762 
     14 C14        32.2991   24.5144   -0.1114 C.ar      12 UNK        -0.0782 
     15 C15        30.1378   23.1707   -0.5088 C.3       12 UNK         0.0230 
     16 S16        29.9210   23.9940   -2.1274 S.3       12 UNK        -0.2608 
     17 C17        29.5010   25.7174   -1.6814 C.3       12 UNK        -0.0989 
     18 CA         27.9715   25.9611   -1.6802 C.3       5 UNK         0.0716 
     19 N          27.3455   25.4555   -0.4498 N.am      5 UNK        -0.4135 
     20 C          26.0921   24.9846   -0.3943 C.2       4 UNK         0.5031 
     21 O          25.3148   24.9912   -1.3495 O.2       4 UNK        -0.5229 
     22 CA         25.6191   24.4063    0.9442 C.3       4 UNK         0.0329 
     23 CB         26.2201   23.0106    1.1836 C.3       4 UNK        -0.2001 
     24 N          25.9618   25.2845    2.0637 N.am      4 UNK        -0.4303 
     25 C          25.0683   26.0054    2.7536 C.2       3 UNK         0.5044 
     26 O          23.8655   26.0486    2.4915 O.2       3 UNK        -0.5152 
     27 CA         25.5948   26.8014    3.9577 C.3       3 UNK         0.0319 
     28 CB         25.8294   25.8767    5.1630 C.3       3 UNK        -0.2001 
     29 N          26.8119   27.5642    3.6740 N.am      3 UNK        -0.4354 
     30 C          26.8442   28.6704    2.9176 C.2       2 UNK         0.4964 
     31 O          25.8739   29.1013    2.2968 O.2       2 UNK        -0.5047 
     32 CA         28.1652   29.4533    2.8751 C.3       2 UNK         0.0288 
     33 CB         28.2021   30.4778    4.0198 C.3       2 UNK        -0.2113 
     34 N          29.3388   28.5787    2.9459 N.am      2 UNK        -0.4145 
     35 C          29.8723   27.9663    1.8794 C.2       1 UNK         0.5006 
     36 O          29.4801   28.1492    0.7283 O.2       1 UNK        -0.5103 
     37 C          27.6131   27.4342   -1.9902 C.2       5 UNK         0.5055 
     38 O          27.8698   27.8752   -3.1120 O.2       5 UNK        -0.5220 
     39 N          27.0123   28.1573   -1.0307 N.am      6 UNK        -0.4450 
     40 CA         26.5380   29.5468   -1.1293 C.3       6 UNK         0.0367 
     41 CB         25.3550   29.6480   -2.1165 C.3       6 UNK        -0.1929 
     42 C          27.6479   30.5830   -1.4153 C.2       6 UNK         0.5070 
     43 O          27.3886   31.5894   -2.0785 O.2       6 UNK        -0.5237 
     44 N          28.8582   30.3272   -0.9063 N.am      7 UNK        -0.4739 
     45 CA         30.0299   31.1967   -1.0053 C.3       7 UNK         0.0276 
     46 CB         31.2297   30.3397   -1.4545 C.3       7 UNK        -0.1927 
     47 C          30.2610   31.9377    0.3288 C.2       7 UNK         0.5013 
     48 O          29.2929   32.3259    0.9873 O.2       7 UNK        -0.5193 
     49 N          31.5331   32.1612    0.6878 N.am      8 UNK        -0.4253 
     50 CA         31.9658   32.8276    1.9202 C.3       8 UNK         0.0242 
     51 CB         33.4584   33.1760    1.7926 C.3       8 UNK        -0.2000 
     52 C          31.7273   31.9630    3.1703 C.2       8 UNK         0.4948 
     53 O          31.6471   30.7397    3.0644 O.2       8 UNK        -0.5275 
     54 N          31.6416   32.6135    4.3383 N.am      9 UNK        -0.4246 
     55 CA         31.4476   31.9760    5.6434 C.3       9 UNK         0.0261 
     56 CB         31.0878   33.0531    6.6825 C.3       9 UNK        -0.1959 
     57 C          32.6813   31.1608    6.0714 C.2       9 UNK         0.5033 
     58 O          33.6417   31.7343    6.5904 O.2       9 UNK        -0.5390 
     59 N          32.6295   29.8459    5.8392 N.am      10 UNK        -0.4215 
     60 CA         33.6597   28.8634    6.1593 C.3       10 UNK         0.0240 
     61 CB         34.8384   28.9917    5.1724 C.3       10 UNK        -0.1982 
     62 C          33.0417   27.4621    6.0775 C.2       10 UNK         0.4970 
     63 O          31.9693   27.2997    5.4861 O.2       10 UNK        -0.4916 
     64 N          33.7536   26.4702    6.6283 N.am      11 UNK        -0.4279 
     65 CA         33.4520   25.0306    6.5115 C.3       11 UNK         0.1003 
     66 C          32.1928   24.5446    7.2940 C.2       11 UNK         0.5709 
     67 N          31.6208   25.3447    8.1855 N.am      11 UNK        -0.7358 
     68 O          31.7394   23.4178    7.1132 O.2       11 UNK        -0.4999 
     69 C69        33.4679   24.5755    5.0233 C.3       12 UNK        -0.0954 
     70 S70        34.1895   22.9271    4.7302 S.3       12 UNK        -0.2268 
     71 C71        33.0283   22.2241    3.4990 C.3       12 UNK         0.0203 
     72 H72        28.4899   23.7736    4.5364 H         1 UNK         0.0888 
     73 H73        30.2385   23.6737    4.6910 H         1 UNK         0.0888 
     74 H74        29.3608   24.9970    5.4704 H         1 UNK         0.0888 
     75 H75        31.1650   26.2102    4.1301 H         1 UNK         0.3017 
     76 H76        30.8910   26.2160    1.2956 H         1 UNK         0.0873 
     77 H77        33.0237   26.7639    2.8021 H         1 UNK         0.0745 
     78 H78        32.4383   28.3880    2.7411 H         1 UNK         0.0745 
     79 H79        35.0448   26.1885    1.0835 H         1 UNK         0.0705 
     80 H80        34.5973   26.0545   -0.6016 H         1 UNK         0.0705 
     81 H81        34.5312   24.3314    2.4228 H         1 UNK         0.1334 
     82 H82        31.0157   21.9722    1.7264 H         1 UNK         0.1417 
     83 H83        32.1094   25.1183   -0.9860 H         1 UNK         0.1562 
     84 H84        29.2849   23.4133    0.1240 H         1 UNK         0.0748 
     85 H85        30.0949   22.0942   -0.6805 H         1 UNK         0.0748 
     86 H86        30.0004   26.3538   -2.4150 H         1 UNK         0.0940 
     87 H87        29.9346   25.9831   -0.7199 H         1 UNK         0.0940 
     88 H88        27.5586   25.4003   -2.5222 H         1 UNK         0.0703 
     89 H89        27.9272   25.4113    0.3789 H         1 UNK         0.3081 
     90 H90        24.5362   24.2824    0.8742 H         1 UNK         0.0719 
     91 H91        26.0276   22.3493    0.3375 H         1 UNK         0.0809 
     92 H92        27.2987   23.0477    1.3328 H         1 UNK         0.0809 
     93 H93        25.7822   22.5428    2.0654 H         1 UNK         0.0809 
     94 H94        26.9424   25.3074    2.3369 H         1 UNK         0.2990 
     95 H95        24.8173   27.5152    4.2401 H         1 UNK         0.0690 
     96 H96        26.1356   26.4405    6.0444 H         1 UNK         0.0788 
     97 H97        26.5937   25.1284    4.9587 H         1 UNK         0.0788 
     98 H98        24.9155   25.3416    5.4246 H         1 UNK         0.0788 
     99 H99        27.6538   27.2737    4.1455 H         1 UNK         0.2993 
    100 H100       28.1835   30.0081    1.9349 H         1 UNK         0.0949 
    101 H101       27.2798   31.0596    4.0564 H         1 UNK         0.0767 
    102 H102       28.3304   30.0042    4.9935 H         1 UNK         0.0767 
    103 H103       29.0114   31.1898    3.8728 H         1 UNK         0.0767 
    104 H104       29.7297   28.3888    3.8564 H         1 UNK         0.3013 
    105 H105       26.8820   27.7159   -0.1321 H         1 UNK         0.3121 
    106 H106       26.1515   29.8066   -0.1450 H         1 UNK         0.0774 
    107 H107       24.5745   28.9264   -1.8753 H         1 UNK         0.0815 
    108 H108       24.8993   30.6382   -2.0821 H         1 UNK         0.0815 
    109 H109       25.6701   29.4716   -3.1453 H         1 UNK         0.0815 
    110 H110       28.9853   29.4848   -0.3457 H         1 UNK         0.2987 
    111 H111       29.8636   31.9632   -1.7649 H         1 UNK         0.0949 
    112 H112       30.9949   29.7820   -2.3615 H         1 UNK         0.0806 
    113 H113       32.1044   30.9509   -1.6787 H         1 UNK         0.0806 
    114 H114       31.5088   29.6161   -0.6892 H         1 UNK         0.0806 
    115 H115       32.2639   31.7707    0.1121 H         1 UNK         0.3010 
    116 H116       31.3934   33.7519    2.0251 H         1 UNK         0.0829 
    117 H117       34.0726   32.2806    1.6857 H         1 UNK         0.0813 
    118 H118       33.6452   33.8170    0.9307 H         1 UNK         0.0813 
    119 H119       33.8156   33.7108    2.6737 H         1 UNK         0.0813 
    120 H120       31.7582   33.6164    4.3445 H         1 UNK         0.3038 
    121 H121       30.5987   31.2943    5.5733 H         1 UNK         0.0769 
    122 H122       30.9447   32.6098    7.6689 H         1 UNK         0.0811 
    123 H123       30.1606   33.5630    6.4204 H         1 UNK         0.0811 
    124 H124       31.8709   33.8067    6.7753 H         1 UNK         0.0811 
    125 H125       31.8163   29.4487    5.3848 H         1 UNK         0.3204 
    126 H126       34.0071   29.0326    7.1806 H         1 UNK         0.0748 
    127 H127       35.6106   28.2486    5.3746 H         1 UNK         0.0771 
    128 H128       34.5137   28.8534    4.1401 H         1 UNK         0.0771 
    129 H129       35.3132   29.9704    5.2413 H         1 UNK         0.0771 
    130 H130       34.6088   26.6954    7.1162 H         1 UNK         0.2980 
    131 H131       34.2884   24.5446    7.0146 H         1 UNK         0.0545 
    132 H132       31.9839   26.2690    8.3518 H         1 UNK         0.3459 
    133 H133       30.8155   25.0179    8.6950 H         1 UNK         0.3459 
    134 H134       32.4691   24.6221    4.5940 H         1 UNK         0.0616 
    135 H135       34.0723   25.2672    4.4358 H         1 UNK         0.0616 
    136 H136       33.3886   21.2336    3.2188 H         1 UNK         0.0634 
    137 H137       32.0691   22.0734    3.9965 H         1 UNK         0.0634 
@<TRIPOS>BOND
     1    1    2 1    
     2    1   72 1    
     3    1   73 1    
     4    1   74 1    
     5    2    3 2    
     6    2    4 am   BACKBONE|DICT|INTERRES
     7    4    5 1    
     8    4   75 1    
     9    5    6 1    
    10    5   35 1    
    11    5   76 1    
    12    6    7 1    
    13    6   77 1    
    14    6   78 1    
    15    7    8 1    
    16    8    9 1    
    17    8   79 1    
    18    8   80 1    
    19    9   10 ar   
    20    9   14 ar   
    21   10   11 ar   
    22   10   81 1    
    23   11   12 ar   
    24   11   71 1    
    25   12   13 ar   
    26   12   82 1    
    27   13   14 ar   
    28   13   15 1    
    29   14   83 1    
    30   15   16 1    
    31   15   84 1    
    32   15   85 1    
    33   16   17 1    
    34   17   18 1    
    35   17   86 1    
    36   17   87 1    
    37   18   19 1    
    38   18   37 1    
    39   18   88 1    
    40   19   20 am   BACKBONE|DICT|INTERRES
    41   19   89 1    
    42   20   21 2    
    43   20   22 1    
    44   22   23 1    
    45   22   24 1    
    46   22   90 1    
    47   23   91 1    
    48   23   92 1    
    49   23   93 1    
    50   24   25 am   BACKBONE|DICT|INTERRES
    51   24   94 1    
    52   25   26 2    
    53   25   27 1    
    54   27   28 1    
    55   27   29 1    
    56   27   95 1    
    57   28   96 1    
    58   28   97 1    
    59   28   98 1    
    60   29   30 am   BACKBONE|DICT|INTERRES
    61   29   99 1    
    62   30   31 2    
    63   30   32 1    
    64   32   33 1    
    65   32   34 1    
    66   32  100 1    
    67   33  101 1    
    68   33  102 1    
    69   33  103 1    
    70   34   35 am   BACKBONE|DICT|INTERRES
    71   34  104 1    
    72   35   36 2    
    73   37   38 2    
    74   37   39 am   BACKBONE|DICT|INTERRES
    75   39   40 1    
    76   39  105 1    
    77   40   41 1    
    78   40   42 1    
    79   40  106 1    
    80   41  107 1    
    81   41  108 1    
    82   41  109 1    
    83   42   43 2    
    84   42   44 am   BACKBONE|DICT|INTERRES
    85   44   45 1    
    86   44  110 1    
    87   45   46 1    
    88   45   47 1    
    89   45  111 1    
    90   46  112 1    
    91   46  113 1    
    92   46  114 1    
    93   47   48 2    
    94   47   49 am   BACKBONE|DICT|INTERRES
    95   49   50 1    
    96   49  115 1    
    97   50   51 1    
    98   50   52 1    
    99   50  116 1    
   100   51  117 1    
   101   51  118 1    
   102   51  119 1    
   103   52   53 2    
   104   52   54 am   BACKBONE|DICT|INTERRES
   105   54   55 1    
   106   54  120 1    
   107   55   56 1    
   108   55   57 1    
   109   55  121 1    
   110   56  122 1    
   111   56  123 1    
   112   56  124 1    
   113   57   58 2    
   114   57   59 am   BACKBONE|DICT|INTERRES
   115   59   60 1    
   116   59  125 1    
   117   60   61 1    
   118   60   62 1    
   119   60  126 1    
   120   61  127 1    
   121   61  128 1    
   122   61  129 1    
   123   62   63 2    
   124   62   64 am   BACKBONE|DICT|INTERRES
   125   64   65 1    
   126   64  130 1    
   127   65   66 1    
   128   65   69 1    
   129   65  131 1    
   130   66   67 am   BACKBONE|DICT|INTERRES
   131   66   68 2    
   132   67  132 1    
   133   67  133 1    
   134   69   70 1    
   135   69  134 1    
   136   69  135 1    
   137   70   71 1    
   138   71  136 1    
   139   71  137 1    
@<TRIPOS>SUBSTRUCTURE
     1 UNK         1 GROUP             0       ****    0 ROOT    
