@<TRIPOS>MOLECULE
3R136
137   139    1
SMALL
USER_CHARGES


@<TRIPOS>ATOM
      1 CA         25.9390   17.7668    2.7996 C.3       0 UNK        -0.1979 
      2 C          26.7056   19.0731    2.6484 C.2       0 UNK         0.4864 
      3 O          26.6445   19.9158    3.5450 O.2       0 UNK        -0.5359 
      4 N          27.4275   19.2278    1.5277 N.am      1 UNK        -0.4318 
      5 CA         28.2020   20.4074    1.1125 C.3       1 UNK         0.0824 
      6 C6         29.2048   20.8932    2.1984 C.3       12 UNK        -0.0944 
      7 S7         30.6852   21.7044    1.5065 S.3       12 UNK        -0.2672 
      8 C8         30.4411   23.4003    2.1150 C.3       12 UNK         0.0333 
      9 C9         31.4995   24.3551    1.5838 C.ar      12 UNK        -0.0807 
     10 C10        32.4435   24.9245    2.4449 C.ar      12 UNK        -0.0894 
     11 C11        33.3957   25.8245    1.9553 C.ar      12 UNK        -0.0804 
     12 C12        33.4021   26.1492    0.5948 C.ar      12 UNK        -0.0824 
     13 C13        32.4691   25.5805   -0.2764 C.ar      12 UNK        -0.0762 
     14 C14        31.5187   24.6875    0.2266 C.ar      12 UNK        -0.0782 
     15 C15        32.5119   25.9046   -1.7643 C.3       12 UNK         0.0230 
     16 S16        31.8037   27.5383   -2.1499 S.3       12 UNK        -0.2608 
     17 C17        30.0341   27.2681   -1.7976 C.3       12 UNK        -0.0989 
     18 CA         29.3778   28.4189   -0.9989 C.3       5 UNK         0.0716 
     19 N          27.9264   28.2524   -0.9315 N.am      5 UNK        -0.4135 
     20 C          27.0520   29.2442   -0.7140 C.2       4 UNK         0.5031 
     21 O          27.3654   30.4315   -0.6321 O.2       4 UNK        -0.5229 
     22 CA         25.5753   28.8423   -0.5417 C.3       4 UNK         0.0329 
     23 CB         24.8531   28.8520   -1.8983 C.3       4 UNK        -0.2001 
     24 N          25.4026   27.5318    0.0933 N.am      4 UNK        -0.4303 
     25 C          25.7404   27.2566    1.3614 C.2       3 UNK         0.5044 
     26 O          26.1939   28.0918    2.1416 O.2       3 UNK        -0.5152 
     27 CA         25.5964   25.7955    1.8240 C.3       3 UNK         0.0319 
     28 CB         24.1852   25.5436    2.3770 C.3       3 UNK        -0.2001 
     29 N          25.9023   24.7998    0.7898 N.am      3 UNK        -0.4354 
     30 C          27.0640   24.7026    0.1296 C.2       2 UNK         0.4964 
     31 O          28.0108   25.4756    0.2916 O.2       2 UNK        -0.5047 
     32 CA         27.1889   23.5503   -0.8787 C.3       2 UNK         0.0288 
     33 CB         27.9510   23.9798   -2.1454 C.3       2 UNK        -0.2113 
     34 N          27.8681   22.4066   -0.2696 N.am      2 UNK        -0.4145 
     35 C          27.2932   21.5391    0.5744 C.2       1 UNK         0.5006 
     36 O          26.1026   21.6036    0.8935 O.2       1 UNK        -0.5103 
     37 C          29.9571   28.5841    0.4205 C.2       5 UNK         0.5055 
     38 O          30.7594   29.4919    0.6393 O.2       5 UNK        -0.5220 
     39 N          29.4912   27.7599    1.3730 N.am      6 UNK        -0.4450 
     40 CA         29.8651   27.8384    2.7897 C.3       6 UNK         0.0367 
     41 CB         29.1914   26.7045    3.5761 C.3       6 UNK        -0.1929 
     42 C          29.5311   29.1951    3.4347 C.2       6 UNK         0.5070 
     43 O          30.3142   29.6926    4.2384 O.2       6 UNK        -0.5237 
     44 N          28.3890   29.7824    3.0558 N.am      7 UNK        -0.4739 
     45 CA         27.9405   31.1032    3.5018 C.3       7 UNK         0.0276 
     46 CB         26.4507   31.2597    3.1549 C.3       7 UNK        -0.1927 
     47 C          28.7490   32.2796    2.9197 C.2       7 UNK         0.5013 
     48 O          28.6453   33.3865    3.4503 O.2       7 UNK        -0.5193 
     49 N          29.5128   32.0495    1.8421 N.am      8 UNK        -0.4253 
     50 CA         30.2667   33.0834    1.1264 C.3       8 UNK         0.0242 
     51 CB         30.3444   32.7049   -0.3634 C.3       8 UNK        -0.2000 
     52 C          31.6740   33.3361    1.7000 C.2       8 UNK         0.4948 
     53 O          32.3612   34.2297    1.2015 O.2       8 UNK        -0.5275 
     54 N          32.0960   32.5666    2.7102 N.am      9 UNK        -0.4246 
     55 CA         33.4098   32.6538    3.3460 C.3       9 UNK         0.0261 
     56 CB         34.4176   31.8024    2.5485 C.3       9 UNK        -0.1959 
     57 C          33.3020   32.2056    4.8100 C.2       9 UNK         0.5033 
     58 O          32.2211   31.8216    5.2594 O.2       9 UNK        -0.5390 
     59 N          34.4231   32.2424    5.5405 N.am      10 UNK        -0.4215 
     60 CA         34.5316   31.8036    6.9375 C.3       10 UNK         0.0240 
     61 CB         35.6844   32.5724    7.6120 C.3       10 UNK        -0.1982 
     62 C          34.6849   30.2711    7.0614 C.2       10 UNK         0.4970 
     63 O          35.5857   29.7978    7.7573 O.2       10 UNK        -0.4916 
     64 N          33.8231   29.5219    6.3656 N.am      11 UNK        -0.4279 
     65 CA         33.7900   28.0527    6.3609 C.3       11 UNK         0.1003 
     66 C          33.1943   27.4722    7.6720 C.2       11 UNK         0.5709 
     67 N          33.5806   26.2582    8.0407 N.am      11 UNK        -0.7358 
     68 O          32.3662   28.0906    8.3391 O.2       11 UNK        -0.4999 
     69 C69        33.0409   27.5102    5.1168 C.3       12 UNK        -0.0954 
     70 S70        33.8527   28.0246    3.5646 S.3       12 UNK        -0.2268 
     71 C71        34.4312   26.4409    2.8837 C.3       12 UNK         0.0203 
     72 H72        26.2624   17.2438    3.6993 H         1 UNK         0.0888 
     73 H73        24.8714   17.9673    2.8869 H         1 UNK         0.0888 
     74 H74        26.0902   17.1023    1.9491 H         1 UNK         0.0888 
     75 H75        27.4016   18.4864    0.8412 H         1 UNK         0.3017 
     76 H76        28.7818   20.0498    0.2596 H         1 UNK         0.0873 
     77 H77        29.5704   20.0391    2.7708 H         1 UNK         0.0745 
     78 H78        28.7149   21.5423    2.9270 H         1 UNK         0.0745 
     79 H79        30.4436   23.3906    3.2062 H         1 UNK         0.0705 
     80 H80        29.4559   23.7530    1.8106 H         1 UNK         0.0705 
     81 H81        32.4350   24.6721    3.4961 H         1 UNK         0.1334 
     82 H82        34.1368   26.8441    0.2112 H         1 UNK         0.1417 
     83 H83        30.7931   24.2402   -0.4368 H         1 UNK         0.1562 
     84 H84        31.9898   25.1403   -2.3423 H         1 UNK         0.0748 
     85 H85        33.5480   25.8844   -2.1057 H         1 UNK         0.0748 
     86 H86        29.8971   26.3226   -1.2773 H         1 UNK         0.0940 
     87 H87        29.5288   27.1520   -2.7577 H         1 UNK         0.0940 
     88 H88        29.5794   29.3469   -1.5393 H         1 UNK         0.0703 
     89 H89        27.5889   27.2999   -0.9166 H         1 UNK         0.3081 
     90 H90        25.1056   29.5904    0.1009 H         1 UNK         0.0719 
     91 H91        23.7876   28.6524   -1.7822 H         1 UNK         0.0809 
     92 H92        24.9471   29.8253   -2.3823 H         1 UNK         0.0809 
     93 H93        25.2629   28.1074   -2.5820 H         1 UNK         0.0809 
     94 H94        25.0254   26.7881   -0.4760 H         1 UNK         0.2990 
     95 H95        26.3086   25.6407    2.6363 H         1 UNK         0.0690 
     96 H96        23.9423   26.2570    3.1661 H         1 UNK         0.0788 
     97 H97        24.1004   24.5459    2.8084 H         1 UNK         0.0788 
     98 H98        23.4232   25.6415    1.6027 H         1 UNK         0.0788 
     99 H99        25.1999   24.0912    0.6264 H         1 UNK         0.2993 
    100 H100       26.1853   23.2474   -1.1861 H         1 UNK         0.0949 
    101 H101       28.9942   24.2140   -1.9382 H         1 UNK         0.0767 
    102 H102       27.9330   23.1929   -2.8997 H         1 UNK         0.0767 
    103 H103       27.4993   24.8658   -2.5937 H         1 UNK         0.0767 
    104 H104       28.8544   22.3088   -0.4639 H         1 UNK         0.3013 
    105 H105       28.8626   27.0090    1.1014 H         1 UNK         0.3121 
    106 H106       30.9461   27.6979    2.8390 H         1 UNK         0.0774 
    107 H107       28.1129   26.8448    3.6424 H         1 UNK         0.0815 
    108 H108       29.5761   26.6611    4.5957 H         1 UNK         0.0815 
    109 H109       29.3744   25.7363    3.1181 H         1 UNK         0.0815 
    110 H110       27.7522   29.2610    2.4596 H         1 UNK         0.2987 
    111 H111       28.0468   31.1475    4.5879 H         1 UNK         0.0949 
    112 H112       26.2812   31.1978    2.0790 H         1 UNK         0.0806 
    113 H113       25.8489   30.4864    3.6330 H         1 UNK         0.0806 
    114 H114       26.0665   32.2231    3.4927 H         1 UNK         0.0806 
    115 H115       29.5961   31.1025    1.4892 H         1 UNK         0.3010 
    116 H116       29.7220   34.0274    1.1963 H         1 UNK         0.0829 
    117 H117       29.3551   32.5080   -0.7774 H         1 UNK         0.0813 
    118 H118       30.7847   33.5132   -0.9486 H         1 UNK         0.0813 
    119 H119       30.9586   31.8191   -0.5251 H         1 UNK         0.0813 
    120 H120       31.4632   31.8961    3.1326 H         1 UNK         0.3038 
    121 H121       33.7412   33.6944    3.3539 H         1 UNK         0.0769 
    122 H122       34.1065   30.7590    2.5003 H         1 UNK         0.0811 
    123 H123       35.4139   31.8293    2.9900 H         1 UNK         0.0811 
    124 H124       34.5145   32.1636    1.5245 H         1 UNK         0.0811 
    125 H125       35.2800   32.5447    5.0991 H         1 UNK         0.3204 
    126 H126       33.6116   32.0694    7.4628 H         1 UNK         0.0748 
    127 H127       36.6470   32.3417    7.1538 H         1 UNK         0.0771 
    128 H128       35.5323   33.6502    7.5498 H         1 UNK         0.0771 
    129 H129       35.7574   32.3205    8.6709 H         1 UNK         0.0771 
    130 H130       33.0862   29.9904    5.8504 H         1 UNK         0.2980 
    131 H131       34.8238   27.7059    6.3002 H         1 UNK         0.0545 
    132 H132       33.1970   25.8579    8.8825 H         1 UNK         0.3459 
    133 H133       34.2537   25.7371    7.5007 H         1 UNK         0.3459 
    134 H134       32.9774   26.4217    5.1478 H         1 UNK         0.0616 
    135 H135       32.0120   27.8697    5.1070 H         1 UNK         0.0616 
    136 H136       34.6921   25.7516    3.6881 H         1 UNK         0.0634 
    137 H137       35.3554   26.6205    2.3326 H         1 UNK         0.0634 
@<TRIPOS>BOND
     1    1    2 1    
     2    1   72 1    
     3    1   73 1    
     4    1   74 1    
     5    2    3 2    
     6    2    4 am   BACKBONE|DICT|INTERRES
     7    4    5 1    
     8    4   75 1    
     9    5    6 1    
    10    5   35 1    
    11    5   76 1    
    12    6    7 1    
    13    6   77 1    
    14    6   78 1    
    15    7    8 1    
    16    8    9 1    
    17    8   79 1    
    18    8   80 1    
    19    9   10 ar   
    20    9   14 ar   
    21   10   11 ar   
    22   10   81 1    
    23   11   12 ar   
    24   11   71 1    
    25   12   13 ar   
    26   12   82 1    
    27   13   14 ar   
    28   13   15 1    
    29   14   83 1    
    30   15   16 1    
    31   15   84 1    
    32   15   85 1    
    33   16   17 1    
    34   17   18 1    
    35   17   86 1    
    36   17   87 1    
    37   18   19 1    
    38   18   37 1    
    39   18   88 1    
    40   19   20 am   BACKBONE|DICT|INTERRES
    41   19   89 1    
    42   20   21 2    
    43   20   22 1    
    44   22   23 1    
    45   22   24 1    
    46   22   90 1    
    47   23   91 1    
    48   23   92 1    
    49   23   93 1    
    50   24   25 am   BACKBONE|DICT|INTERRES
    51   24   94 1    
    52   25   26 2    
    53   25   27 1    
    54   27   28 1    
    55   27   29 1    
    56   27   95 1    
    57   28   96 1    
    58   28   97 1    
    59   28   98 1    
    60   29   30 am   BACKBONE|DICT|INTERRES
    61   29   99 1    
    62   30   31 2    
    63   30   32 1    
    64   32   33 1    
    65   32   34 1    
    66   32  100 1    
    67   33  101 1    
    68   33  102 1    
    69   33  103 1    
    70   34   35 am   BACKBONE|DICT|INTERRES
    71   34  104 1    
    72   35   36 2    
    73   37   38 2    
    74   37   39 am   BACKBONE|DICT|INTERRES
    75   39   40 1    
    76   39  105 1    
    77   40   41 1    
    78   40   42 1    
    79   40  106 1    
    80   41  107 1    
    81   41  108 1    
    82   41  109 1    
    83   42   43 2    
    84   42   44 am   BACKBONE|DICT|INTERRES
    85   44   45 1    
    86   44  110 1    
    87   45   46 1    
    88   45   47 1    
    89   45  111 1    
    90   46  112 1    
    91   46  113 1    
    92   46  114 1    
    93   47   48 2    
    94   47   49 am   BACKBONE|DICT|INTERRES
    95   49   50 1    
    96   49  115 1    
    97   50   51 1    
    98   50   52 1    
    99   50  116 1    
   100   51  117 1    
   101   51  118 1    
   102   51  119 1    
   103   52   53 2    
   104   52   54 am   BACKBONE|DICT|INTERRES
   105   54   55 1    
   106   54  120 1    
   107   55   56 1    
   108   55   57 1    
   109   55  121 1    
   110   56  122 1    
   111   56  123 1    
   112   56  124 1    
   113   57   58 2    
   114   57   59 am   BACKBONE|DICT|INTERRES
   115   59   60 1    
   116   59  125 1    
   117   60   61 1    
   118   60   62 1    
   119   60  126 1    
   120   61  127 1    
   121   61  128 1    
   122   61  129 1    
   123   62   63 2    
   124   62   64 am   BACKBONE|DICT|INTERRES
   125   64   65 1    
   126   64  130 1    
   127   65   66 1    
   128   65   69 1    
   129   65  131 1    
   130   66   67 am   BACKBONE|DICT|INTERRES
   131   66   68 2    
   132   67  132 1    
   133   67  133 1    
   134   69   70 1    
   135   69  134 1    
   136   69  135 1    
   137   70   71 1    
   138   71  136 1    
   139   71  137 1    
@<TRIPOS>SUBSTRUCTURE
     1 UNK         1 GROUP             0       ****    0 ROOT    
