@<TRIPOS>MOLECULE
3R136
137   139    1
SMALL
USER_CHARGES


@<TRIPOS>ATOM
      1 CA         25.8957   22.6189    4.9212 C.3       0 UNK        -0.1979 
      2 C          26.0010   22.1472    3.4782 C.2       0 UNK         0.4864 
      3 O          25.1579   21.3721    3.0238 O.2       0 UNK        -0.5359 
      4 N          27.0347   22.6033    2.7597 N.am      1 UNK        -0.4318 
      5 CA         27.2703   22.3101    1.3437 C.3       1 UNK         0.0824 
      6 C6         28.6942   22.7316    0.9063 C.3       12 UNK        -0.0944 
      7 S7         29.9812   21.6128    1.5590 S.3       12 UNK        -0.2672 
      8 C8         30.7124   22.5656    2.9391 C.3       12 UNK         0.0333 
      9 C9         31.4686   23.8468    2.5708 C.ar      12 UNK        -0.0807 
     10 C10        31.9675   24.6392    3.6108 C.ar      12 UNK        -0.0894 
     11 C11        32.6490   25.8307    3.3438 C.ar      12 UNK        -0.0804 
     12 C12        32.8335   26.2362    2.0203 C.ar      12 UNK        -0.0824 
     13 C13        32.3430   25.4592    0.9697 C.ar      12 UNK        -0.0762 
     14 C14        31.6788   24.2618    1.2485 C.ar      12 UNK        -0.0782 
     15 C15        32.5243   25.9033   -0.4718 C.3       12 UNK         0.0230 
     16 S16        30.9666   26.5338   -1.1708 S.3       12 UNK        -0.2608 
     17 C17        30.9442   28.2759   -0.6146 C.3       12 UNK        -0.0989 
     18 CA         29.7297   28.6638    0.2706 C.3       5 UNK         0.0716 
     19 N          28.4621   28.1162   -0.2317 N.am      5 UNK        -0.4135 
     20 C          27.2393   28.4589    0.1959 C.2       4 UNK         0.5031 
     21 O          27.0487   29.3226    1.0524 O.2       4 UNK        -0.5229 
     22 CA         26.0308   27.6675   -0.3365 C.3       4 UNK         0.0329 
     23 CB         24.9705   28.5966   -0.9625 C.3       4 UNK        -0.2001 
     24 N          26.3559   26.5380   -1.2205 N.am      4 UNK        -0.4303 
     25 C          26.8071   26.5707   -2.4858 C.2       3 UNK         0.5044 
     26 O          27.1022   27.6091   -3.0768 O.2       3 UNK        -0.5152 
     27 CA         26.9825   25.2246   -3.2222 C.3       3 UNK         0.0319 
     28 CB         28.4714   24.9204   -3.4559 C.3       3 UNK        -0.2001 
     29 N          26.3764   24.0816   -2.5345 N.am      3 UNK        -0.4354 
     30 C          25.0614   23.8725   -2.3783 C.2       2 UNK         0.4964 
     31 O          24.1919   24.5736   -2.8958 O.2       2 UNK        -0.5047 
     32 CA         24.6417   22.7043   -1.4651 C.3       2 UNK         0.0288 
     33 CB         24.1828   21.5032   -2.3086 C.3       2 UNK        -0.2113 
     34 N          25.6755   22.2588   -0.5193 N.am      2 UNK        -0.4145 
     35 C          26.2117   23.0017    0.4614 C.2       1 UNK         0.5006 
     36 O          25.9450   24.1929    0.6464 O.2       1 UNK        -0.5103 
     37 C          29.9717   28.3857    1.7707 C.2       5 UNK         0.5055 
     38 O          30.7273   29.1255    2.3985 O.2       5 UNK        -0.5220 
     39 N          29.2761   27.3889    2.3374 N.am      6 UNK        -0.4450 
     40 CA         29.2154   27.1076    3.7734 C.3       6 UNK         0.0367 
     41 CB         28.4491   25.7935    3.9897 C.3       6 UNK        -0.1929 
     42 C          28.5840   28.2366    4.6109 C.2       6 UNK         0.5070 
     43 O          28.8819   28.3315    5.8014 O.2       6 UNK        -0.5237 
     44 N          27.7286   29.0649    3.9934 N.am      7 UNK        -0.4739 
     45 CA         27.1020   30.2272    4.6292 C.3       7 UNK         0.0276 
     46 CB         25.7109   30.4436    4.0091 C.3       7 UNK        -0.1927 
     47 C          27.9535   31.5052    4.5071 C.2       7 UNK         0.5013 
     48 O          27.6116   32.5079    5.1363 O.2       7 UNK        -0.5193 
     49 N          29.0234   31.4661    3.7025 N.am      8 UNK        -0.4253 
     50 CA         29.9563   32.5704    3.4893 C.3       8 UNK         0.0242 
     51 CB         30.3147   32.6222    1.9931 C.3       8 UNK        -0.2000 
     52 C          31.2211   32.3604    4.3320 C.2       8 UNK         0.4948 
     53 O          31.4886   31.2481    4.7930 O.2       8 UNK        -0.5275 
     54 N          32.0361   33.4152    4.4568 N.am      9 UNK        -0.4246 
     55 CA         33.3451   33.4017    5.1252 C.3       9 UNK         0.0261 
     56 CB         33.7109   34.8415    5.5332 C.3       9 UNK        -0.1959 
     57 C          34.4525   32.7268    4.2815 C.2       9 UNK         0.5033 
     58 O          35.5866   33.2086    4.2542 O.2       9 UNK        -0.5390 
     59 N          34.1051   31.6312    3.5950 N.am      10 UNK        -0.4215 
     60 CA         35.0007   30.8298    2.7600 C.3       10 UNK         0.0240 
     61 CB         34.1588   30.0500    1.7373 C.3       10 UNK        -0.1982 
     62 C          35.8777   29.8736    3.5861 C.2       10 UNK         0.4970 
     63 O          36.9680   29.5211    3.1348 O.2       10 UNK        -0.4916 
     64 N          35.3911   29.4828    4.7691 N.am      11 UNK        -0.4279 
     65 CA         36.0986   28.6593    5.7555 C.3       11 UNK         0.1003 
     66 C          36.5301   29.5351    6.9591 C.2       11 UNK         0.5709 
     67 N          37.6690   29.2358    7.5682 N.am      11 UNK        -0.7358 
     68 O          35.8279   30.4598    7.3665 O.2       11 UNK        -0.4999 
     69 C69        35.2226   27.4710    6.2296 C.3       12 UNK        -0.0954 
     70 S70        34.8854   26.2808    4.8897 S.3       12 UNK        -0.2268 
     71 C71        33.1634   26.6945    4.4838 C.3       12 UNK         0.0203 
     72 H72        25.8991   21.7638    5.5966 H         1 UNK         0.0888 
     73 H73        26.7220   23.2729    5.1994 H         1 UNK         0.0888 
     74 H74        24.9654   23.1667    5.0691 H         1 UNK         0.0888 
     75 H75        27.6824   23.2475    3.1838 H         1 UNK         0.3017 
     76 H76        27.1708   21.2305    1.2082 H         1 UNK         0.0873 
     77 H77        28.7890   22.7026   -0.1812 H         1 UNK         0.0745 
     78 H78        28.8987   23.7640    1.1948 H         1 UNK         0.0745 
     79 H79        31.4049   21.9050    3.4627 H         1 UNK         0.0705 
     80 H80        29.9237   22.8016    3.6537 H         1 UNK         0.0705 
     81 H81        31.8188   24.3309    4.6369 H         1 UNK         0.1334 
     82 H82        33.3541   27.1585    1.8095 H         1 UNK         0.1417 
     83 H83        31.3172   23.6714    0.4195 H         1 UNK         0.1562 
     84 H84        32.8545   25.0517   -1.0684 H         1 UNK         0.0748 
     85 H85        33.3094   26.6559   -0.5606 H         1 UNK         0.0748 
     86 H86        31.8856   28.5317   -0.1239 H         1 UNK         0.0940 
     87 H87        30.9248   28.8879   -1.5178 H         1 UNK         0.0940 
     88 H88        29.6323   29.7498    0.2035 H         1 UNK         0.0703 
     89 H89        28.5433   27.4071   -0.9462 H         1 UNK         0.3081 
     90 H90        25.5754   27.2116    0.5441 H         1 UNK         0.0719 
     91 H91        25.3630   29.1477   -1.8173 H         1 UNK         0.0809 
     92 H92        24.0978   28.0347   -1.2955 H         1 UNK         0.0809 
     93 H93        24.6228   29.3341   -0.2379 H         1 UNK         0.0809 
     94 H94        26.1835   25.6266   -0.8069 H         1 UNK         0.2990 
     95 H95        26.4984   25.3300   -4.1954 H         1 UNK         0.0690 
     96 H96        28.9951   24.7270   -2.5194 H         1 UNK         0.0788 
     97 H97        28.9746   25.7558   -3.9453 H         1 UNK         0.0788 
     98 H98        28.6009   24.0483   -4.0971 H         1 UNK         0.0788 
     99 H99        27.0117   23.4328   -2.0949 H         1 UNK         0.2993 
    100 H100       23.7911   23.0546   -0.8762 H         1 UNK         0.0949 
    101 H101       25.0001   21.0899   -2.9012 H         1 UNK         0.0767 
    102 H102       23.7843   20.7056   -1.6810 H         1 UNK         0.0767 
    103 H103       23.3911   21.7914   -3.0019 H         1 UNK         0.0767 
    104 H104       25.9638   21.2941   -0.6036 H         1 UNK         0.3013 
    105 H105       28.6913   26.8249    1.7402 H         1 UNK         0.3121 
    106 H106       30.2370   26.9792    4.1311 H         1 UNK         0.0774 
    107 H107       28.4384   25.5182    5.0453 H         1 UNK         0.0815 
    108 H108       27.4121   25.8708    3.6595 H         1 UNK         0.0815 
    109 H109       28.9171   24.9762    3.4454 H         1 UNK         0.0815 
    110 H110       27.5421   28.9449    3.0024 H         1 UNK         0.2987 
    111 H111       26.9672   30.0298    5.6950 H         1 UNK         0.0949 
    112 H112       25.7749   30.7045    2.9522 H         1 UNK         0.0806 
    113 H113       25.0921   29.5507    4.0980 H         1 UNK         0.0806 
    114 H114       25.1818   31.2547    4.5112 H         1 UNK         0.0806 
    115 H115       29.3071   30.5730    3.3182 H         1 UNK         0.3010 
    116 H116       29.4966   33.5186    3.7764 H         1 UNK         0.0829 
    117 H117       30.9524   33.4778    1.7681 H         1 UNK         0.0813 
    118 H118       30.8489   31.7270    1.6724 H         1 UNK         0.0813 
    119 H119       29.4213   32.7162    1.3752 H         1 UNK         0.0813 
    120 H120       31.7722   34.2843    4.0141 H         1 UNK         0.3038 
    121 H121       33.2550   32.8148    6.0420 H         1 UNK         0.0769 
    122 H122       32.9373   35.2862    6.1594 H         1 UNK         0.0811 
    123 H123       33.8508   35.4838    4.6628 H         1 UNK         0.0811 
    124 H124       34.6380   34.8635    6.1077 H         1 UNK         0.0811 
    125 H125       33.1564   31.2895    3.7216 H         1 UNK         0.3204 
    126 H126       35.6675   31.5007    2.2141 H         1 UNK         0.0748 
    127 H127       34.7850   29.4074    1.1168 H         1 UNK         0.0771 
    128 H128       33.4204   29.4177    2.2300 H         1 UNK         0.0771 
    129 H129       33.6230   30.7247    1.0694 H         1 UNK         0.0771 
    130 H130       34.5169   29.8758    5.0841 H         1 UNK         0.2980 
    131 H131       37.0055   28.2483    5.3074 H         1 UNK         0.0545 
    132 H132       37.9588   29.7865    8.3613 H         1 UNK         0.3459 
    133 H133       38.2460   28.4718    7.2515 H         1 UNK         0.3459 
    134 H134       35.7295   26.9200    7.0240 H         1 UNK         0.0616 
    135 H135       34.2833   27.8246    6.6589 H         1 UNK         0.0616 
    136 H136       32.5399   26.5601    5.3691 H         1 UNK         0.0634 
    137 H137       33.0922   27.7491    4.2128 H         1 UNK         0.0634 
@<TRIPOS>BOND
     1    1    2 1    
     2    1   72 1    
     3    1   73 1    
     4    1   74 1    
     5    2    3 2    
     6    2    4 am   BACKBONE|DICT|INTERRES
     7    4    5 1    
     8    4   75 1    
     9    5    6 1    
    10    5   35 1    
    11    5   76 1    
    12    6    7 1    
    13    6   77 1    
    14    6   78 1    
    15    7    8 1    
    16    8    9 1    
    17    8   79 1    
    18    8   80 1    
    19    9   10 ar   
    20    9   14 ar   
    21   10   11 ar   
    22   10   81 1    
    23   11   12 ar   
    24   11   71 1    
    25   12   13 ar   
    26   12   82 1    
    27   13   14 ar   
    28   13   15 1    
    29   14   83 1    
    30   15   16 1    
    31   15   84 1    
    32   15   85 1    
    33   16   17 1    
    34   17   18 1    
    35   17   86 1    
    36   17   87 1    
    37   18   19 1    
    38   18   37 1    
    39   18   88 1    
    40   19   20 am   BACKBONE|DICT|INTERRES
    41   19   89 1    
    42   20   21 2    
    43   20   22 1    
    44   22   23 1    
    45   22   24 1    
    46   22   90 1    
    47   23   91 1    
    48   23   92 1    
    49   23   93 1    
    50   24   25 am   BACKBONE|DICT|INTERRES
    51   24   94 1    
    52   25   26 2    
    53   25   27 1    
    54   27   28 1    
    55   27   29 1    
    56   27   95 1    
    57   28   96 1    
    58   28   97 1    
    59   28   98 1    
    60   29   30 am   BACKBONE|DICT|INTERRES
    61   29   99 1    
    62   30   31 2    
    63   30   32 1    
    64   32   33 1    
    65   32   34 1    
    66   32  100 1    
    67   33  101 1    
    68   33  102 1    
    69   33  103 1    
    70   34   35 am   BACKBONE|DICT|INTERRES
    71   34  104 1    
    72   35   36 2    
    73   37   38 2    
    74   37   39 am   BACKBONE|DICT|INTERRES
    75   39   40 1    
    76   39  105 1    
    77   40   41 1    
    78   40   42 1    
    79   40  106 1    
    80   41  107 1    
    81   41  108 1    
    82   41  109 1    
    83   42   43 2    
    84   42   44 am   BACKBONE|DICT|INTERRES
    85   44   45 1    
    86   44  110 1    
    87   45   46 1    
    88   45   47 1    
    89   45  111 1    
    90   46  112 1    
    91   46  113 1    
    92   46  114 1    
    93   47   48 2    
    94   47   49 am   BACKBONE|DICT|INTERRES
    95   49   50 1    
    96   49  115 1    
    97   50   51 1    
    98   50   52 1    
    99   50  116 1    
   100   51  117 1    
   101   51  118 1    
   102   51  119 1    
   103   52   53 2    
   104   52   54 am   BACKBONE|DICT|INTERRES
   105   54   55 1    
   106   54  120 1    
   107   55   56 1    
   108   55   57 1    
   109   55  121 1    
   110   56  122 1    
   111   56  123 1    
   112   56  124 1    
   113   57   58 2    
   114   57   59 am   BACKBONE|DICT|INTERRES
   115   59   60 1    
   116   59  125 1    
   117   60   61 1    
   118   60   62 1    
   119   60  126 1    
   120   61  127 1    
   121   61  128 1    
   122   61  129 1    
   123   62   63 2    
   124   62   64 am   BACKBONE|DICT|INTERRES
   125   64   65 1    
   126   64  130 1    
   127   65   66 1    
   128   65   69 1    
   129   65  131 1    
   130   66   67 am   BACKBONE|DICT|INTERRES
   131   66   68 2    
   132   67  132 1    
   133   67  133 1    
   134   69   70 1    
   135   69  134 1    
   136   69  135 1    
   137   70   71 1    
   138   71  136 1    
   139   71  137 1    
@<TRIPOS>SUBSTRUCTURE
     1 UNK         1 GROUP             0       ****    0 ROOT    
