@<TRIPOS>MOLECULE
3R136
137   139    1
SMALL
USER_CHARGES


@<TRIPOS>ATOM
      1 CA         29.9151   18.2284   -0.9951 C.3       0 UNK        -0.1979 
      2 C          30.4015   19.6302   -0.6587 C.2       0 UNK         0.4864 
      3 O          31.5376   19.9776   -0.9827 O.2       0 UNK        -0.5359 
      4 N          29.5475   20.4406   -0.0189 N.am      1 UNK        -0.4318 
      5 CA         29.8552   21.8089    0.4236 C.3       1 UNK         0.0824 
      6 C6         29.0037   22.2310    1.6505 C.3       12 UNK        -0.0944 
      7 S7         29.1669   21.0875    3.0620 S.3       12 UNK        -0.2672 
      8 C8         30.4987   21.8699    4.0377 C.3       12 UNK         0.0333 
      9 C9         30.0717   23.0734    4.8804 C.ar      12 UNK        -0.0807 
     10 C10        30.9932   24.1010    5.1127 C.ar      12 UNK        -0.0894 
     11 C11        30.6632   25.1873    5.9294 C.ar      12 UNK        -0.0804 
     12 C12        29.4027   25.2422    6.5257 C.ar      12 UNK        -0.0824 
     13 C13        28.4633   24.2374    6.2884 C.ar      12 UNK        -0.0762 
     14 C14        28.8051   23.1507    5.4757 C.ar      12 UNK        -0.0782 
     15 C15        27.0791   24.3292    6.9107 C.3       12 UNK         0.0230 
     16 S16        25.8634   25.0031    5.7358 S.3       12 UNK        -0.2608 
     17 C17        26.3138   26.7767    5.6509 C.3       12 UNK        -0.0989 
     18 CA         27.2297   27.1503    4.4495 C.3       5 UNK         0.0716 
     19 N          26.7785   26.5187    3.2032 N.am      5 UNK        -0.4135 
     20 C          27.5304   26.2654    2.1269 C.2       4 UNK         0.5031 
     21 O          28.6929   26.6584    2.0024 O.2       4 UNK        -0.5229 
     22 CA         26.8986   25.4102    1.0192 C.3       4 UNK         0.0329 
     23 CB         25.3531   25.4483    0.9731 C.3       4 UNK        -0.2001 
     24 N          27.5027   25.6998   -0.2826 N.am      4 UNK        -0.4303 
     25 C          27.3076   26.7704   -1.0662 C.2       3 UNK         0.5044 
     26 O          26.5383   27.6932   -0.7941 O.2       3 UNK        -0.5152 
     27 CA         28.0992   26.8309   -2.3910 C.3       3 UNK         0.0319 
     28 CB         29.0685   28.0259   -2.3886 C.3       3 UNK        -0.2001 
     29 N          28.8520   25.6088   -2.6989 N.am      3 UNK        -0.4354 
     30 C          28.3239   24.4237   -3.0389 C.2       2 UNK         0.4964 
     31 O          27.1204   24.2334   -3.2158 O.2       2 UNK        -0.5047 
     32 CA         29.2993   23.2384   -3.1700 C.3       2 UNK         0.0288 
     33 CB         30.7084   23.6545   -3.6508 C.3       2 UNK        -0.2113 
     34 N          29.3883   22.4404   -1.9374 N.am      2 UNK        -0.4145 
     35 C          29.7550   22.8561   -0.7123 C.2       1 UNK         0.5006 
     36 O          30.0090   24.0318   -0.4510 O.2       1 UNK        -0.5103 
     37 C          27.4319   28.6816    4.3196 C.2       5 UNK         0.5055 
     38 O          27.0897   29.4320    5.2366 O.2       5 UNK        -0.5220 
     39 N          27.9703   29.1309    3.1801 N.am      6 UNK        -0.4450 
     40 CA         28.2231   30.5250    2.8226 C.3       6 UNK         0.0367 
     41 CB         28.2907   30.6301    1.2868 C.3       6 UNK        -0.1929 
     42 C          29.5024   31.0433    3.4993 C.2       6 UNK         0.5070 
     43 O          30.4890   31.3234    2.8166 O.2       6 UNK        -0.5237 
     44 N          29.4802   31.1413    4.8347 N.am      7 UNK        -0.4739 
     45 CA         30.6227   31.4944    5.6891 C.3       7 UNK         0.0276 
     46 CB         30.1783   31.4958    7.1593 C.3       7 UNK        -0.1927 
     47 C          31.3157   32.8200    5.3273 C.2       7 UNK         0.5013 
     48 O          32.5390   32.9079    5.4341 O.2       7 UNK        -0.5193 
     49 N          30.5408   33.7962    4.8335 N.am      8 UNK        -0.4253 
     50 CA         31.0286   35.0744    4.3022 C.3       8 UNK         0.0242 
     51 CB         29.8264   35.9831    3.9982 C.3       8 UNK        -0.2000 
     52 C          31.9264   34.9380    3.0547 C.2       8 UNK         0.4948 
     53 O          32.7371   35.8299    2.8026 O.2       8 UNK        -0.5275 
     54 N          31.7815   33.8314    2.3134 N.am      9 UNK        -0.4246 
     55 CA         32.5966   33.4610    1.1553 C.3       9 UNK         0.0261 
     56 CB         31.6522   33.1038   -0.0079 C.3       9 UNK        -0.1959 
     57 C          33.5465   32.2895    1.4791 C.2       9 UNK         0.5033 
     58 O          34.1065   31.7058    0.5504 O.2       9 UNK        -0.5390 
     59 N          33.7024   31.9539    2.7712 N.am      10 UNK        -0.4215 
     60 CA         34.4642   30.8224    3.3177 C.3       10 UNK         0.0240 
     61 CB         35.9717   30.9584    3.0109 C.3       10 UNK        -0.1982 
     62 C          33.8903   29.4396    2.9379 C.2       10 UNK         0.4970 
     63 O          34.6394   28.4611    2.9154 O.2       10 UNK        -0.4916 
     64 N          32.5730   29.3841    2.6978 N.am      11 UNK        -0.4279 
     65 CA         31.7629   28.1980    2.3790 C.3       11 UNK         0.1003 
     66 C          32.0367   27.5806    0.9793 C.2       11 UNK         0.5709 
     67 N          31.1586   26.6933    0.5368 N.am      11 UNK        -0.7358 
     68 O          33.0098   27.8833    0.2919 O.2       11 UNK        -0.4999 
     69 C69        31.7848   27.1159    3.4955 C.3       12 UNK        -0.0954 
     70 S70        31.2893   27.7551    5.1280 S.3       12 UNK        -0.2268 
     71 C71        31.6593   26.3112    6.1694 C.3       12 UNK         0.0203 
     72 H72        28.8929   18.0589   -0.6570 H         1 UNK         0.0888 
     73 H73        29.9473   18.0675   -2.0724 H         1 UNK         0.0888 
     74 H74        30.5558   17.4859   -0.5202 H         1 UNK         0.0888 
     75 H75        28.6325   20.0962    0.2369 H         1 UNK         0.3017 
     76 H76        30.9001   21.8284    0.7413 H         1 UNK         0.0873 
     77 H77        27.9479   22.2589    1.3787 H         1 UNK         0.0745 
     78 H78        29.2664   23.2369    1.9860 H         1 UNK         0.0745 
     79 H79        31.3075   22.1468    3.3595 H         1 UNK         0.0705 
     80 H80        30.9103   21.1183    4.7123 H         1 UNK         0.0705 
     81 H81        31.9749   24.0545    4.6612 H         1 UNK         0.1334 
     82 H82        29.1456   26.0843    7.1538 H         1 UNK         0.1417 
     83 H83        28.0801   22.3655    5.3119 H         1 UNK         0.1562 
     84 H84        27.0964   24.9386    7.8157 H         1 UNK         0.0748 
     85 H85        26.7535   23.3353    7.2214 H         1 UNK         0.0748 
     86 H86        26.7804   27.0755    6.5913 H         1 UNK         0.0940 
     87 H87        25.3783   27.3370    5.5955 H         1 UNK         0.0940 
     88 H88        28.2221   26.7497    4.6572 H         1 UNK         0.0703 
     89 H89        25.8324   26.1680    3.2175 H         1 UNK         0.3081 
     90 H90        27.1808   24.3852    1.2469 H         1 UNK         0.0719 
     91 H91        24.9677   26.4668    0.9134 H         1 UNK         0.0809 
     92 H92        24.9732   24.9001    0.1108 H         1 UNK         0.0809 
     93 H93        24.9177   24.9824    1.8578 H         1 UNK         0.0809 
     94 H94        28.2511   25.0715   -0.5542 H         1 UNK         0.2990 
     95 H95        27.3708   26.9847   -3.1897 H         1 UNK         0.0690 
     96 H96        29.5871   28.1201   -3.3428 H         1 UNK         0.0788 
     97 H97        29.8196   27.9358   -1.6037 H         1 UNK         0.0788 
     98 H98        28.5350   28.9622   -2.2187 H         1 UNK         0.0788 
     99 H99        29.8484   25.6430   -2.5387 H         1 UNK         0.2993 
    100 H100       28.8769   22.5831   -3.9337 H         1 UNK         0.0949 
    101 H101       31.3119   22.7773   -3.8849 H         1 UNK         0.0767 
    102 H102       30.6523   24.2554   -4.5597 H         1 UNK         0.0767 
    103 H103       31.2533   24.2331   -2.9044 H         1 UNK         0.0767 
    104 H104       29.1633   21.4610   -2.0384 H         1 UNK         0.3013 
    105 H105       28.2822   28.4239    2.5194 H         1 UNK         0.3121 
    106 H106       27.3899   31.1400    3.1688 H         1 UNK         0.0774 
    107 H107       28.4598   31.6607    0.9723 H         1 UNK         0.0815 
    108 H108       29.0992   30.0256    0.8732 H         1 UNK         0.0815 
    109 H109       27.3601   30.2988    0.8250 H         1 UNK         0.0815 
    110 H110       28.6351   30.8316    5.3040 H         1 UNK         0.2987 
    111 H111       31.3697   30.7085    5.5626 H         1 UNK         0.0949 
    112 H112       29.3944   32.2313    7.3438 H         1 UNK         0.0806 
    113 H113       29.7997   30.5180    7.4584 H         1 UNK         0.0806 
    114 H114       31.0131   31.7338    7.8203 H         1 UNK         0.0806 
    115 H115       29.5474   33.6247    4.7731 H         1 UNK         0.3010 
    116 H116       31.6292   35.5481    5.0817 H         1 UNK         0.0829 
    117 H117       29.2286   36.1645    4.8916 H         1 UNK         0.0813 
    118 H118       30.1557   36.9556    3.6290 H         1 UNK         0.0813 
    119 H119       29.1748   35.5502    3.2380 H         1 UNK         0.0813 
    120 H120       31.1135   33.1231    2.6079 H         1 UNK         0.3038 
    121 H121       33.2202   34.3013    0.8441 H         1 UNK         0.0769 
    122 H122       32.2124   32.8876   -0.9184 H         1 UNK         0.0811 
    123 H123       30.9743   33.9265   -0.2352 H         1 UNK         0.0811 
    124 H124       31.0482   32.2245    0.2203 H         1 UNK         0.0811 
    125 H125       33.2096   32.5048    3.4658 H         1 UNK         0.3204 
    126 H126       34.3503   30.8934    4.4005 H         1 UNK         0.0748 
    127 H127       36.5515   30.2170    3.5620 H         1 UNK         0.0771 
    128 H128       36.1851   30.8127    1.9517 H         1 UNK         0.0771 
    129 H129       36.3484   31.9400    3.2984 H         1 UNK         0.0771 
    130 H130       32.0403   30.2483    2.7221 H         1 UNK         0.2980 
    131 H131       30.7439   28.5786    2.3205 H         1 UNK         0.0545 
    132 H132       30.3226   26.4872    1.0776 H         1 UNK         0.3459 
    133 H133       31.3148   26.2187   -0.3364 H         1 UNK         0.3459 
    134 H134       31.1014   26.3027    3.2474 H         1 UNK         0.0616 
    135 H135       32.7753   26.6662    3.5767 H         1 UNK         0.0616 
    136 H136       32.6803   25.9750    5.9828 H         1 UNK         0.0634 
    137 H137       31.6234   26.6145    7.2167 H         1 UNK         0.0634 
@<TRIPOS>BOND
     1    1    2 1    
     2    1   72 1    
     3    1   73 1    
     4    1   74 1    
     5    2    3 2    
     6    2    4 am   BACKBONE|DICT|INTERRES
     7    4    5 1    
     8    4   75 1    
     9    5    6 1    
    10    5   35 1    
    11    5   76 1    
    12    6    7 1    
    13    6   77 1    
    14    6   78 1    
    15    7    8 1    
    16    8    9 1    
    17    8   79 1    
    18    8   80 1    
    19    9   10 ar   
    20    9   14 ar   
    21   10   11 ar   
    22   10   81 1    
    23   11   12 ar   
    24   11   71 1    
    25   12   13 ar   
    26   12   82 1    
    27   13   14 ar   
    28   13   15 1    
    29   14   83 1    
    30   15   16 1    
    31   15   84 1    
    32   15   85 1    
    33   16   17 1    
    34   17   18 1    
    35   17   86 1    
    36   17   87 1    
    37   18   19 1    
    38   18   37 1    
    39   18   88 1    
    40   19   20 am   BACKBONE|DICT|INTERRES
    41   19   89 1    
    42   20   21 2    
    43   20   22 1    
    44   22   23 1    
    45   22   24 1    
    46   22   90 1    
    47   23   91 1    
    48   23   92 1    
    49   23   93 1    
    50   24   25 am   BACKBONE|DICT|INTERRES
    51   24   94 1    
    52   25   26 2    
    53   25   27 1    
    54   27   28 1    
    55   27   29 1    
    56   27   95 1    
    57   28   96 1    
    58   28   97 1    
    59   28   98 1    
    60   29   30 am   BACKBONE|DICT|INTERRES
    61   29   99 1    
    62   30   31 2    
    63   30   32 1    
    64   32   33 1    
    65   32   34 1    
    66   32  100 1    
    67   33  101 1    
    68   33  102 1    
    69   33  103 1    
    70   34   35 am   BACKBONE|DICT|INTERRES
    71   34  104 1    
    72   35   36 2    
    73   37   38 2    
    74   37   39 am   BACKBONE|DICT|INTERRES
    75   39   40 1    
    76   39  105 1    
    77   40   41 1    
    78   40   42 1    
    79   40  106 1    
    80   41  107 1    
    81   41  108 1    
    82   41  109 1    
    83   42   43 2    
    84   42   44 am   BACKBONE|DICT|INTERRES
    85   44   45 1    
    86   44  110 1    
    87   45   46 1    
    88   45   47 1    
    89   45  111 1    
    90   46  112 1    
    91   46  113 1    
    92   46  114 1    
    93   47   48 2    
    94   47   49 am   BACKBONE|DICT|INTERRES
    95   49   50 1    
    96   49  115 1    
    97   50   51 1    
    98   50   52 1    
    99   50  116 1    
   100   51  117 1    
   101   51  118 1    
   102   51  119 1    
   103   52   53 2    
   104   52   54 am   BACKBONE|DICT|INTERRES
   105   54   55 1    
   106   54  120 1    
   107   55   56 1    
   108   55   57 1    
   109   55  121 1    
   110   56  122 1    
   111   56  123 1    
   112   56  124 1    
   113   57   58 2    
   114   57   59 am   BACKBONE|DICT|INTERRES
   115   59   60 1    
   116   59  125 1    
   117   60   61 1    
   118   60   62 1    
   119   60  126 1    
   120   61  127 1    
   121   61  128 1    
   122   61  129 1    
   123   62   63 2    
   124   62   64 am   BACKBONE|DICT|INTERRES
   125   64   65 1    
   126   64  130 1    
   127   65   66 1    
   128   65   69 1    
   129   65  131 1    
   130   66   67 am   BACKBONE|DICT|INTERRES
   131   66   68 2    
   132   67  132 1    
   133   67  133 1    
   134   69   70 1    
   135   69  134 1    
   136   69  135 1    
   137   70   71 1    
   138   71  136 1    
   139   71  137 1    
@<TRIPOS>SUBSTRUCTURE
     1 UNK         1 GROUP             0       ****    0 ROOT    
