@<TRIPOS>MOLECULE
3R136
137   139    1
SMALL
USER_CHARGES


@<TRIPOS>ATOM
      1 CA         27.5161   24.6771    6.7337 C.3       0 UNK        -0.1979 
      2 C          27.8485   24.2921    5.3001 C.2       0 UNK         0.4864 
      3 O          27.9274   23.1038    4.9871 O.2       0 UNK        -0.5359 
      4 N          28.0268   25.2918    4.4305 N.am      1 UNK        -0.4318 
      5 CA         28.3464   25.1568    3.0072 C.3       1 UNK         0.0824 
      6 C6         29.7448   25.7385    2.6766 C.3       12 UNK        -0.0944 
      7 S7         31.1180   24.9248    3.5664 S.3       12 UNK        -0.2672 
      8 C8         32.1419   24.2765    2.2034 C.3       12 UNK         0.0333 
      9 C9         32.8334   25.3940    1.4334 C.ar      12 UNK        -0.0807 
     10 C10        34.0708   25.8899    1.8516 C.ar      12 UNK        -0.0894 
     11 C11        34.6994   26.9300    1.1562 C.ar      12 UNK        -0.0804 
     12 C12        34.0558   27.4950    0.0444 C.ar      12 UNK        -0.0824 
     13 C13        32.8106   27.0143   -0.3715 C.ar      12 UNK        -0.0762 
     14 C14        32.2295   25.9417    0.3019 C.ar      12 UNK        -0.0782 
     15 C15        32.0488   27.6658   -1.5132 C.3       12 UNK         0.0230 
     16 S16        30.7772   28.7777   -0.8362 S.3       12 UNK        -0.2608 
     17 C17        29.6986   29.0698   -2.2801 C.3       12 UNK        -0.0989 
     18 CA         28.1999   28.7285   -2.0203 C.3       5 UNK         0.0716 
     19 N          27.9703   27.3097   -1.7124 N.am      5 UNK        -0.4135 
     20 C          28.0422   26.3448   -2.6414 C.2       4 UNK         0.5031 
     21 O          28.2520   26.5596   -3.8365 O.2       4 UNK        -0.5229 
     22 CA         27.8531   24.8930   -2.1774 C.3       4 UNK         0.0329 
     23 CB         29.0317   24.4160   -1.3175 C.3       4 UNK        -0.2001 
     24 N          26.6003   24.6987   -1.4526 N.am      4 UNK        -0.4303 
     25 C          25.3940   24.6142   -2.0305 C.2       3 UNK         0.5044 
     26 O          25.2060   24.6972   -3.2448 O.2       3 UNK        -0.5152 
     27 CA         24.1895   24.3711   -1.1028 C.3       3 UNK         0.0319 
     28 CB         23.7980   22.8843   -1.1103 C.3       3 UNK        -0.2001 
     29 N          24.4189   24.7989    0.2801 N.am      3 UNK        -0.4354 
     30 C          24.4960   26.0786    0.6667 C.2       2 UNK         0.4964 
     31 O          24.4044   27.0365   -0.1003 O.2       2 UNK        -0.5047 
     32 CA         24.7693   26.3226    2.1571 C.3       2 UNK         0.0288 
     33 CB         23.5616   25.9173    3.0186 C.3       2 UNK        -0.2113 
     34 N          25.9731   25.6491    2.6454 N.am      2 UNK        -0.4145 
     35 C          27.2232   25.8386    2.1927 C.2       1 UNK         0.5006 
     36 O          27.4952   26.5443    1.2142 O.2       1 UNK        -0.5103 
     37 C          27.5136   29.6929   -1.0278 C.2       5 UNK         0.5055 
     38 O          27.9072   30.8597   -0.9710 O.2       5 UNK        -0.5220 
     39 N          26.4963   29.2253   -0.2827 N.am      6 UNK        -0.4450 
     40 CA         25.7491   29.9817    0.7364 C.3       6 UNK         0.0367 
     41 CB         24.9040   31.0987    0.0856 C.3       6 UNK        -0.1929 
     42 C          26.6469   30.4912    1.8840 C.2       6 UNK         0.5070 
     43 O          26.4997   31.6345    2.3210 O.2       6 UNK        -0.5237 
     44 N          27.5772   29.6395    2.3314 N.am      7 UNK        -0.4739 
     45 CA         28.6159   29.9669    3.3099 C.3       7 UNK         0.0276 
     46 CB         29.9504   30.1187    2.5555 C.3       7 UNK        -0.1927 
     47 C          28.6862   28.8945    4.4090 C.2       7 UNK         0.5013 
     48 O          27.7661   28.0835    4.5397 O.2       7 UNK        -0.5193 
     49 N          29.7849   28.8859    5.1713 N.am      8 UNK        -0.4253 
     50 CA         30.1249   27.8735    6.1671 C.3       8 UNK         0.0242 
     51 CB         29.2885   28.0730    7.4461 C.3       8 UNK        -0.2000 
     52 C          31.6219   27.9763    6.4790 C.2       8 UNK         0.4948 
     53 O          32.2027   29.0520    6.3075 O.2       8 UNK        -0.5275 
     54 N          32.2001   26.8718    6.9718 N.am      9 UNK        -0.4246 
     55 CA         33.5780   26.7423    7.4619 C.3       9 UNK         0.0261 
     56 CB         33.7175   27.4497    8.8305 C.3       9 UNK        -0.1959 
     57 C          34.6247   27.1770    6.4148 C.2       9 UNK         0.5033 
     58 O          34.6143   26.6522    5.2992 O.2       9 UNK        -0.5390 
     59 N          35.5030   28.1227    6.7741 N.am      10 UNK        -0.4215 
     60 CA         36.5634   28.6805    5.9310 C.3       10 UNK         0.0240 
     61 CB         37.6461   29.2956    6.8384 C.3       10 UNK        -0.1982 
     62 C          36.0243   29.6787    4.8851 C.2       10 UNK         0.4970 
     63 O          36.4559   30.8327    4.8544 O.2       10 UNK        -0.4916 
     64 N          35.0977   29.2021    4.0465 N.am      11 UNK        -0.4279 
     65 CA         34.4862   29.9072    2.9100 C.3       11 UNK         0.1003 
     66 C          33.5924   31.1179    3.3275 C.2       11 UNK         0.5709 
     67 N          33.0291   31.1465    4.5294 N.am      11 UNK        -0.7358 
     68 O          33.3853   32.0463    2.5493 O.2       11 UNK        -0.4999 
     69 C69        35.5140   30.2989    1.8014 C.3       12 UNK        -0.0954 
     70 S70        36.6352   29.0354    1.0840 S.3       12 UNK        -0.2268 
     71 C71        36.0802   27.3810    1.6324 C.3       12 UNK         0.0203 
     72 H72        26.6536   24.1119    7.0860 H         1 UNK         0.0888 
     73 H73        28.3598   24.4562    7.3868 H         1 UNK         0.0888 
     74 H74        27.2819   25.7376    6.8238 H         1 UNK         0.0888 
     75 H75        27.8940   26.2593    4.7245 H         1 UNK         0.3017 
     76 H76        28.3397   24.1053    2.7133 H         1 UNK         0.0873 
     77 H77        29.7902   26.8032    2.8993 H         1 UNK         0.0745 
     78 H78        29.9166   25.6596    1.6093 H         1 UNK         0.0745 
     79 H79        31.5235   23.6737    1.5364 H         1 UNK         0.0705 
     80 H80        32.8902   23.5999    2.6188 H         1 UNK         0.0705 
     81 H81        34.5464   25.4617    2.7242 H         1 UNK         0.1334 
     82 H82        34.5101   28.3126   -0.4967 H         1 UNK         0.1417 
     83 H83        31.2817   25.5624   -0.0430 H         1 UNK         0.1562 
     84 H84        31.5807   26.8965   -2.1297 H         1 UNK         0.0748 
     85 H85        32.7207   28.2282   -2.1632 H         1 UNK         0.0748 
     86 H86        30.0651   28.4925   -3.1296 H         1 UNK         0.0940 
     87 H87        29.8092   30.1125   -2.5834 H         1 UNK         0.0940 
     88 H88        27.6738   28.9311   -2.9559 H         1 UNK         0.0703 
     89 H89        27.8362   27.0650   -0.7358 H         1 UNK         0.3081 
     90 H90        27.8295   24.2652   -3.0712 H         1 UNK         0.0719 
     91 H91        28.9551   23.3511   -1.0972 H         1 UNK         0.0809 
     92 H92        29.9794   24.5716   -1.8347 H         1 UNK         0.0809 
     93 H93        29.0755   24.9497   -0.3710 H         1 UNK         0.0809 
     94 H94        26.6523   24.6471   -0.4467 H         1 UNK         0.2990 
     95 H95        23.3506   24.9458   -1.5016 H         1 UNK         0.0690 
     96 H96        23.5899   22.5406   -2.1247 H         1 UNK         0.0788 
     97 H97        22.8985   22.7073   -0.5203 H         1 UNK         0.0788 
     98 H98        24.5934   22.2542   -0.7100 H         1 UNK         0.0788 
     99 H99        24.5134   24.0734    0.9763 H         1 UNK         0.2993 
    100 H100       24.9281   27.3909    2.2990 H         1 UNK         0.0949 
    101 H101       23.3814   24.8419    2.9928 H         1 UNK         0.0767 
    102 H102       23.7050   26.2067    4.0601 H         1 UNK         0.0767 
    103 H103       22.6518   26.4094    2.6715 H         1 UNK         0.0767 
    104 H104       25.8578   25.0594    3.4569 H         1 UNK         0.3013 
    105 H105       26.1833   28.2707   -0.4146 H         1 UNK         0.3121 
    106 H106       25.0450   29.2888    1.1908 H         1 UNK         0.0774 
    107 H107       25.5264   31.8834   -0.3452 H         1 UNK         0.0815 
    108 H108       24.2510   31.5713    0.8202 H         1 UNK         0.0815 
    109 H109       24.2665   30.7026   -0.7047 H         1 UNK         0.0815 
    110 H110       27.5950   28.6951    1.9651 H         1 UNK         0.2987 
    111 H111       28.3841   30.9105    3.8083 H         1 UNK         0.0949 
    112 H112       30.7184   30.5457    3.1965 H         1 UNK         0.0806 
    113 H113       30.3195   29.1616    2.1845 H         1 UNK         0.0806 
    114 H114       29.8496   30.7869    1.6995 H         1 UNK         0.0806 
    115 H115       30.5179   29.5685    5.0207 H         1 UNK         0.3010 
    116 H116       29.9300   26.8859    5.7462 H         1 UNK         0.0829 
    117 H117       28.2196   28.0043    7.2456 H         1 UNK         0.0813 
    118 H118       29.5251   27.3144    8.1932 H         1 UNK         0.0813 
    119 H119       29.4785   29.0471    7.8985 H         1 UNK         0.0813 
    120 H120       31.6455   26.0291    7.0256 H         1 UNK         0.3038 
    121 H121       33.7469   25.6768    7.6244 H         1 UNK         0.0769 
    122 H122       33.5552   28.5260    8.7568 H         1 UNK         0.0811 
    123 H123       34.7032   27.2846    9.2678 H         1 UNK         0.0811 
    124 H124       32.9906   27.0607    9.5438 H         1 UNK         0.0811 
    125 H125       35.4036   28.5291    7.6930 H         1 UNK         0.3204 
    126 H126       37.0271   27.8622    5.3757 H         1 UNK         0.0748 
    127 H127       38.4795   29.6794    6.2482 H         1 UNK         0.0771 
    128 H128       37.2554   30.1249    7.4296 H         1 UNK         0.0771 
    129 H129       38.0551   28.5555    7.5265 H         1 UNK         0.0771 
    130 H130       34.7760   28.2517    4.2061 H         1 UNK         0.2980 
    131 H131       33.7854   29.1989    2.4696 H         1 UNK         0.0545 
    132 H132       33.1050   30.3654    5.1727 H         1 UNK         0.3459 
    133 H133       32.4757   31.9474    4.7852 H         1 UNK         0.3459 
    134 H134       34.9747   30.7185    0.9505 H         1 UNK         0.0616 
    135 H135       36.1492   31.1088    2.1635 H         1 UNK         0.0616 
    136 H136       36.8010   26.6621    1.2414 H         1 UNK         0.0634 
    137 H137       36.1623   27.3011    2.7151 H         1 UNK         0.0634 
@<TRIPOS>BOND
     1    1    2 1    
     2    1   72 1    
     3    1   73 1    
     4    1   74 1    
     5    2    3 2    
     6    2    4 am   BACKBONE|DICT|INTERRES
     7    4    5 1    
     8    4   75 1    
     9    5    6 1    
    10    5   35 1    
    11    5   76 1    
    12    6    7 1    
    13    6   77 1    
    14    6   78 1    
    15    7    8 1    
    16    8    9 1    
    17    8   79 1    
    18    8   80 1    
    19    9   10 ar   
    20    9   14 ar   
    21   10   11 ar   
    22   10   81 1    
    23   11   12 ar   
    24   11   71 1    
    25   12   13 ar   
    26   12   82 1    
    27   13   14 ar   
    28   13   15 1    
    29   14   83 1    
    30   15   16 1    
    31   15   84 1    
    32   15   85 1    
    33   16   17 1    
    34   17   18 1    
    35   17   86 1    
    36   17   87 1    
    37   18   19 1    
    38   18   37 1    
    39   18   88 1    
    40   19   20 am   BACKBONE|DICT|INTERRES
    41   19   89 1    
    42   20   21 2    
    43   20   22 1    
    44   22   23 1    
    45   22   24 1    
    46   22   90 1    
    47   23   91 1    
    48   23   92 1    
    49   23   93 1    
    50   24   25 am   BACKBONE|DICT|INTERRES
    51   24   94 1    
    52   25   26 2    
    53   25   27 1    
    54   27   28 1    
    55   27   29 1    
    56   27   95 1    
    57   28   96 1    
    58   28   97 1    
    59   28   98 1    
    60   29   30 am   BACKBONE|DICT|INTERRES
    61   29   99 1    
    62   30   31 2    
    63   30   32 1    
    64   32   33 1    
    65   32   34 1    
    66   32  100 1    
    67   33  101 1    
    68   33  102 1    
    69   33  103 1    
    70   34   35 am   BACKBONE|DICT|INTERRES
    71   34  104 1    
    72   35   36 2    
    73   37   38 2    
    74   37   39 am   BACKBONE|DICT|INTERRES
    75   39   40 1    
    76   39  105 1    
    77   40   41 1    
    78   40   42 1    
    79   40  106 1    
    80   41  107 1    
    81   41  108 1    
    82   41  109 1    
    83   42   43 2    
    84   42   44 am   BACKBONE|DICT|INTERRES
    85   44   45 1    
    86   44  110 1    
    87   45   46 1    
    88   45   47 1    
    89   45  111 1    
    90   46  112 1    
    91   46  113 1    
    92   46  114 1    
    93   47   48 2    
    94   47   49 am   BACKBONE|DICT|INTERRES
    95   49   50 1    
    96   49  115 1    
    97   50   51 1    
    98   50   52 1    
    99   50  116 1    
   100   51  117 1    
   101   51  118 1    
   102   51  119 1    
   103   52   53 2    
   104   52   54 am   BACKBONE|DICT|INTERRES
   105   54   55 1    
   106   54  120 1    
   107   55   56 1    
   108   55   57 1    
   109   55  121 1    
   110   56  122 1    
   111   56  123 1    
   112   56  124 1    
   113   57   58 2    
   114   57   59 am   BACKBONE|DICT|INTERRES
   115   59   60 1    
   116   59  125 1    
   117   60   61 1    
   118   60   62 1    
   119   60  126 1    
   120   61  127 1    
   121   61  128 1    
   122   61  129 1    
   123   62   63 2    
   124   62   64 am   BACKBONE|DICT|INTERRES
   125   64   65 1    
   126   64  130 1    
   127   65   66 1    
   128   65   69 1    
   129   65  131 1    
   130   66   67 am   BACKBONE|DICT|INTERRES
   131   66   68 2    
   132   67  132 1    
   133   67  133 1    
   134   69   70 1    
   135   69  134 1    
   136   69  135 1    
   137   70   71 1    
   138   71  136 1    
   139   71  137 1    
@<TRIPOS>SUBSTRUCTURE
     1 UNK         1 GROUP             0       ****    0 ROOT    
