@<TRIPOS>MOLECULE
3R136
137   139    1
SMALL
USER_CHARGES


@<TRIPOS>ATOM
      1 CA         29.1985   23.7193    6.7702 C.3       0 UNK        -0.1979 
      2 C          28.5175   23.0964    5.5609 C.2       0 UNK         0.4864 
      3 O          27.2990   23.2144    5.4190 O.2       0 UNK        -0.5359 
      4 N          29.2874   22.4198    4.6994 N.am      1 UNK        -0.4318 
      5 CA         28.8101   21.8268    3.4474 C.3       1 UNK         0.0824 
      6 C6         29.7538   20.7038    2.9375 C.3       12 UNK        -0.0944 
      7 S7         31.4896   21.2222    2.6786 S.3       12 UNK        -0.2672 
      8 C8         31.5785   21.4051    0.8580 C.3       12 UNK         0.0333 
      9 C9         32.2859   22.6752    0.3785 C.ar      12 UNK        -0.0807 
     10 C10        33.2951   23.2935    1.1293 C.ar      12 UNK        -0.0894 
     11 C11        33.9148   24.4605    0.6731 C.ar      12 UNK        -0.0804 
     12 C12        33.5383   24.9999   -0.5591 C.ar      12 UNK        -0.0824 
     13 C13        32.5301   24.4022   -1.3198 C.ar      12 UNK        -0.0762 
     14 C14        31.9212   23.2329   -0.8534 C.ar      12 UNK        -0.0782 
     15 C15        32.0858   25.0430   -2.6307 C.3       12 UNK         0.0230 
     16 S16        30.4393   25.8273   -2.5138 S.3       12 UNK        -0.2608 
     17 C17        30.5644   26.7545   -0.9469 C.3       12 UNK        -0.0989 
     18 CA         29.7185   28.0515   -0.9008 C.3       5 UNK         0.0716 
     19 N          28.3008   27.8305   -1.1911 N.am      5 UNK        -0.4135 
     20 C          27.4759   28.7548   -1.7017 C.2       4 UNK         0.5031 
     21 O          27.8415   29.8738   -2.0634 O.2       4 UNK        -0.5229 
     22 CA         25.9865   28.3806   -1.8356 C.3       4 UNK         0.0329 
     23 CB         25.7049   27.7992   -3.2306 C.3       4 UNK        -0.2001 
     24 N          25.5182   27.4372   -0.8168 N.am      4 UNK        -0.4303 
     25 C          25.4365   27.7052    0.4945 C.2       3 UNK         0.5044 
     26 O          25.7012   28.8004    0.9873 O.2       3 UNK        -0.5152 
     27 CA         25.0468   26.5372    1.4224 C.3       3 UNK         0.0319 
     28 CB         23.5194   26.4620    1.5749 C.3       3 UNK        -0.2001 
     29 N          25.5633   25.2214    1.0150 N.am      3 UNK        -0.4354 
     30 C          26.8439   24.9451    0.7284 C.2       2 UNK         0.4964 
     31 O          27.7347   25.7956    0.7229 O.2       2 UNK        -0.5047 
     32 CA         27.1717   23.4883    0.3559 C.3       2 UNK         0.0288 
     33 CB         28.2426   23.4148   -0.7498 C.3       2 UNK        -0.2113 
     34 N          27.5767   22.6786    1.5125 N.am      2 UNK        -0.4145 
     35 C          28.5765   22.9150    2.3788 C.2       1 UNK         0.5006 
     36 O          29.3180   23.8990    2.3471 O.2       1 UNK        -0.5103 
     37 C          29.8729   28.7033    0.4840 C.2       5 UNK         0.5055 
     38 O          30.6371   29.6564    0.6218 O.2       5 UNK        -0.5220 
     39 N          29.1661   28.1512    1.4815 N.am      6 UNK        -0.4450 
     40 CA         29.2686   28.5047    2.8986 C.3       6 UNK         0.0367 
     41 CB         28.5434   27.4337    3.7286 C.3       6 UNK        -0.1929 
     42 C          28.7540   29.9074    3.2628 C.2       6 UNK         0.5070 
     43 O          29.1567   30.4247    4.3052 O.2       6 UNK        -0.5237 
     44 N          27.8733   30.4863    2.4320 N.am      7 UNK        -0.4739 
     45 CA         27.2597   31.8104    2.5918 C.3       7 UNK         0.0276 
     46 CB         26.3780   32.1077    1.3655 C.3       7 UNK        -0.1927 
     47 C          28.2879   32.9360    2.8201 C.2       7 UNK         0.5013 
     48 O          28.8858   33.4219    1.8578 O.2       7 UNK        -0.5193 
     49 N          28.4726   33.3041    4.0975 N.am      8 UNK        -0.4253 
     50 CA         29.4277   34.2903    4.6178 C.3       8 UNK         0.0242 
     51 CB         29.0351   35.7158    4.1717 C.3       8 UNK        -0.2000 
     52 C          30.9011   33.9471    4.3083 C.2       8 UNK         0.4948 
     53 O          31.7019   34.8581    4.0855 O.2       8 UNK        -0.5275 
     54 N          31.2377   32.6503    4.3030 N.am      9 UNK        -0.4246 
     55 CA         32.5764   32.1344    4.0198 C.3       9 UNK         0.0261 
     56 CB         32.5475   31.4130    2.6633 C.3       9 UNK        -0.1959 
     57 C          33.0179   31.1616    5.1183 C.2       9 UNK         0.5033 
     58 O          32.1817   30.6239    5.8490 O.2       9 UNK        -0.5390 
     59 N          34.3321   30.9016    5.1689 N.am      10 UNK        -0.4215 
     60 CA         34.9783   29.9516    6.0844 C.3       10 UNK         0.0240 
     61 CB         36.5044   30.0647    5.9330 C.3       10 UNK        -0.1982 
     62 C          34.5273   28.4881    5.9058 C.2       10 UNK         0.4970 
     63 O          34.6812   27.6973    6.8374 O.2       10 UNK        -0.4916 
     64 N          33.9698   28.1603    4.7327 N.am      11 UNK        -0.4279 
     65 CA         33.3169   26.8774    4.4350 C.3       11 UNK         0.1003 
     66 C          32.0093   26.6233    5.2423 C.2       11 UNK         0.5709 
     67 N          31.3904   27.6297    5.8526 N.am      11 UNK        -0.7358 
     68 O          31.5595   25.4847    5.3275 O.2       11 UNK        -0.4999 
     69 C69        33.0604   26.7020    2.9152 C.3       12 UNK        -0.0954 
     70 S70        34.5728   26.8767    1.9074 S.3       12 UNK        -0.2268 
     71 C71        34.9832   25.1425    1.5194 C.3       12 UNK         0.0203 
     72 H72        30.2582   23.4679    6.8131 H         1 UNK         0.0888 
     73 H73        29.1110   24.8047    6.7291 H         1 UNK         0.0888 
     74 H74        28.7293   23.3712    7.6898 H         1 UNK         0.0888 
     75 H75        30.2899   22.4065    4.8247 H         1 UNK         0.3017 
     76 H76        27.8441   21.3619    3.6580 H         1 UNK         0.0873 
     77 H77        29.7676   19.8960    3.6708 H         1 UNK         0.0745 
     78 H78        29.3584   20.2499    2.0272 H         1 UNK         0.0745 
     79 H79        32.0937   20.5374    0.4446 H         1 UNK         0.0705 
     80 H80        30.5685   21.3887    0.4463 H         1 UNK         0.0705 
     81 H81        33.5965   22.8758    2.0792 H         1 UNK         0.1334 
     82 H82        34.0134   25.9061   -0.9097 H         1 UNK         0.1417 
     83 H83        31.1437   22.7706   -1.4461 H         1 UNK         0.1562 
     84 H84        32.0628   24.2861   -3.4159 H         1 UNK         0.0748 
     85 H85        32.8082   25.7941   -2.9542 H         1 UNK         0.0748 
     86 H86        30.2895   26.0722   -0.1389 H         1 UNK         0.0940 
     87 H87        31.6115   27.0119   -0.7784 H         1 UNK         0.0940 
     88 H88        30.1264   28.7403   -1.6440 H         1 UNK         0.0703 
     89 H89        27.9177   26.9546   -0.8535 H         1 UNK         0.3081 
     90 H90        25.4084   29.3008   -1.7260 H         1 UNK         0.0719 
     91 H91        26.2413   26.8636   -3.3945 H         1 UNK         0.0809 
     92 H92        24.6413   27.6085   -3.3750 H         1 UNK         0.0809 
     93 H93        26.0164   28.4939   -4.0121 H         1 UNK         0.0809 
     94 H94        25.2811   26.5068   -1.1287 H         1 UNK         0.2990 
     95 H95        25.4708   26.7538    2.4041 H         1 UNK         0.0690 
     96 H96        23.2301   25.7237    2.3231 H         1 UNK         0.0788 
     97 H97        23.0314   26.1992    0.6355 H         1 UNK         0.0788 
     98 H98        23.1116   27.4216    1.8968 H         1 UNK         0.0788 
     99 H99        24.8914   24.4674    0.9947 H         1 UNK         0.2993 
    100 H100       26.2629   23.0351   -0.0434 H         1 UNK         0.0949 
    101 H101       28.4261   22.3863   -1.0600 H         1 UNK         0.0767 
    102 H102       27.9328   23.9730   -1.6341 H         1 UNK         0.0767 
    103 H103       29.1894   23.8386   -0.4158 H         1 UNK         0.0767 
    104 H104       27.0238   21.8450    1.6570 H         1 UNK         0.3013 
    105 H105       28.5905   27.3392    1.2634 H         1 UNK         0.3121 
    106 H106       30.3253   28.4818    3.1681 H         1 UNK         0.0774 
    107 H107       27.4838   27.3833    3.4800 H         1 UNK         0.0815 
    108 H108       28.6185   27.6463    4.7956 H         1 UNK         0.0815 
    109 H109       28.9747   26.4452    3.5652 H         1 UNK         0.0815 
    110 H110       27.5616   29.9474    1.6337 H         1 UNK         0.2987 
    111 H111       26.6052   31.7628    3.4644 H         1 UNK         0.0949 
    112 H112       26.9429   32.0349    0.4350 H         1 UNK         0.0806 
    113 H113       25.5379   31.4167    1.3025 H         1 UNK         0.0806 
    114 H114       25.9603   33.1141    1.4169 H         1 UNK         0.0806 
    115 H115       27.9679   32.7855    4.8038 H         1 UNK         0.3010 
    116 H116       29.3386   34.2523    5.7045 H         1 UNK         0.0829 
    117 H117       27.9981   35.9392    4.4221 H         1 UNK         0.0813 
    118 H118       29.6540   36.4659    4.6657 H         1 UNK         0.0813 
    119 H119       29.1576   35.8509    3.0966 H         1 UNK         0.0813 
    120 H120       30.5382   31.9471    4.5287 H         1 UNK         0.3038 
    121 H121       33.3022   32.9492    3.9768 H         1 UNK         0.0769 
    122 H122       31.9168   30.5248    2.7032 H         1 UNK         0.0811 
    123 H123       33.5442   31.0930    2.3577 H         1 UNK         0.0811 
    124 H124       32.1592   32.0593    1.8755 H         1 UNK         0.0811 
    125 H125       34.9427   31.3839    4.5242 H         1 UNK         0.3204 
    126 H126       34.7120   30.2453    7.1019 H         1 UNK         0.0748 
    127 H127       37.0167   29.3942    6.6248 H         1 UNK         0.0771 
    128 H128       36.8309   29.8037    4.9254 H         1 UNK         0.0771 
    129 H129       36.8523   31.0750    6.1495 H         1 UNK         0.0771 
    130 H130       33.9072   28.8640    4.0143 H         1 UNK         0.2980 
    131 H131       34.0114   26.0920    4.7391 H         1 UNK         0.0545 
    132 H132       30.5571   27.4391    6.3831 H         1 UNK         0.3459 
    133 H133       31.7449   28.5778    5.8019 H         1 UNK         0.3459 
    134 H134       32.6000   25.7330    2.7145 H         1 UNK         0.0616 
    135 H135       32.3470   27.4477    2.5622 H         1 UNK         0.0616 
    136 H136       35.9303   25.1181    0.9789 H         1 UNK         0.0634 
    137 H137       35.1461   24.6043    2.4544 H         1 UNK         0.0634 
@<TRIPOS>BOND
     1    1    2 1    
     2    1   72 1    
     3    1   73 1    
     4    1   74 1    
     5    2    3 2    
     6    2    4 am   BACKBONE|DICT|INTERRES
     7    4    5 1    
     8    4   75 1    
     9    5    6 1    
    10    5   35 1    
    11    5   76 1    
    12    6    7 1    
    13    6   77 1    
    14    6   78 1    
    15    7    8 1    
    16    8    9 1    
    17    8   79 1    
    18    8   80 1    
    19    9   10 ar   
    20    9   14 ar   
    21   10   11 ar   
    22   10   81 1    
    23   11   12 ar   
    24   11   71 1    
    25   12   13 ar   
    26   12   82 1    
    27   13   14 ar   
    28   13   15 1    
    29   14   83 1    
    30   15   16 1    
    31   15   84 1    
    32   15   85 1    
    33   16   17 1    
    34   17   18 1    
    35   17   86 1    
    36   17   87 1    
    37   18   19 1    
    38   18   37 1    
    39   18   88 1    
    40   19   20 am   BACKBONE|DICT|INTERRES
    41   19   89 1    
    42   20   21 2    
    43   20   22 1    
    44   22   23 1    
    45   22   24 1    
    46   22   90 1    
    47   23   91 1    
    48   23   92 1    
    49   23   93 1    
    50   24   25 am   BACKBONE|DICT|INTERRES
    51   24   94 1    
    52   25   26 2    
    53   25   27 1    
    54   27   28 1    
    55   27   29 1    
    56   27   95 1    
    57   28   96 1    
    58   28   97 1    
    59   28   98 1    
    60   29   30 am   BACKBONE|DICT|INTERRES
    61   29   99 1    
    62   30   31 2    
    63   30   32 1    
    64   32   33 1    
    65   32   34 1    
    66   32  100 1    
    67   33  101 1    
    68   33  102 1    
    69   33  103 1    
    70   34   35 am   BACKBONE|DICT|INTERRES
    71   34  104 1    
    72   35   36 2    
    73   37   38 2    
    74   37   39 am   BACKBONE|DICT|INTERRES
    75   39   40 1    
    76   39  105 1    
    77   40   41 1    
    78   40   42 1    
    79   40  106 1    
    80   41  107 1    
    81   41  108 1    
    82   41  109 1    
    83   42   43 2    
    84   42   44 am   BACKBONE|DICT|INTERRES
    85   44   45 1    
    86   44  110 1    
    87   45   46 1    
    88   45   47 1    
    89   45  111 1    
    90   46  112 1    
    91   46  113 1    
    92   46  114 1    
    93   47   48 2    
    94   47   49 am   BACKBONE|DICT|INTERRES
    95   49   50 1    
    96   49  115 1    
    97   50   51 1    
    98   50   52 1    
    99   50  116 1    
   100   51  117 1    
   101   51  118 1    
   102   51  119 1    
   103   52   53 2    
   104   52   54 am   BACKBONE|DICT|INTERRES
   105   54   55 1    
   106   54  120 1    
   107   55   56 1    
   108   55   57 1    
   109   55  121 1    
   110   56  122 1    
   111   56  123 1    
   112   56  124 1    
   113   57   58 2    
   114   57   59 am   BACKBONE|DICT|INTERRES
   115   59   60 1    
   116   59  125 1    
   117   60   61 1    
   118   60   62 1    
   119   60  126 1    
   120   61  127 1    
   121   61  128 1    
   122   61  129 1    
   123   62   63 2    
   124   62   64 am   BACKBONE|DICT|INTERRES
   125   64   65 1    
   126   64  130 1    
   127   65   66 1    
   128   65   69 1    
   129   65  131 1    
   130   66   67 am   BACKBONE|DICT|INTERRES
   131   66   68 2    
   132   67  132 1    
   133   67  133 1    
   134   69   70 1    
   135   69  134 1    
   136   69  135 1    
   137   70   71 1    
   138   71  136 1    
   139   71  137 1    
@<TRIPOS>SUBSTRUCTURE
     1 UNK         1 GROUP             0       ****    0 ROOT    
