@<TRIPOS>MOLECULE
3R136
137   139    1
SMALL
USER_CHARGES


@<TRIPOS>ATOM
      1 CA         30.0336   19.6375    0.6570 C.3       0 UNK        -0.1979 
      2 C          29.7576   20.7909   -0.2966 C.2       0 UNK         0.4864 
      3 O          29.9977   20.6613   -1.4984 O.2       0 UNK        -0.5359 
      4 N          29.2623   21.9171    0.2316 N.am      1 UNK        -0.4318 
      5 CA         28.8826   23.1056   -0.5403 C.3       1 UNK         0.0824 
      6 C6         28.8699   24.3828    0.3345 C.3       12 UNK        -0.0944 
      7 S7         30.5134   24.7797    1.0159 S.3       12 UNK        -0.2672 
      8 C8         30.4078   24.1291    2.7154 C.3       12 UNK         0.0333 
      9 C9         30.4846   25.2508    3.7391 C.ar      12 UNK        -0.0807 
     10 C10        31.7143   25.8574    4.0069 C.ar      12 UNK        -0.0894 
     11 C11        31.8086   26.9008    4.9305 C.ar      12 UNK        -0.0804 
     12 C12        30.6572   27.3336    5.5946 C.ar      12 UNK        -0.0824 
     13 C13        29.4217   26.7219    5.3544 C.ar      12 UNK        -0.0762 
     14 C14        29.3433   25.6763    4.4260 C.ar      12 UNK        -0.0782 
     15 C15        28.1898   27.1847    6.1290 C.3       12 UNK         0.0230 
     16 S16        26.7180   27.4724    5.0884 S.3       12 UNK        -0.2608 
     17 C17        27.3445   28.6618    3.8546 C.3       12 UNK        -0.0989 
     18 CA         27.3044   28.0634    2.4260 C.3       5 UNK         0.0716 
     19 N          25.9295   27.7710    2.0023 N.am      5 UNK        -0.4135 
     20 C          25.5854   26.9205    1.0302 C.2       4 UNK         0.5031 
     21 O          26.4022   26.3044    0.3392 O.2       4 UNK        -0.5229 
     22 CA         24.0893   26.7299    0.7665 C.3       4 UNK         0.0329 
     23 CB         23.5200   27.9010   -0.0561 C.3       4 UNK        -0.2001 
     24 N          23.9559   25.4809    0.0294 N.am      4 UNK        -0.4303 
     25 C          22.8542   24.7530   -0.1598 C.2       3 UNK         0.5044 
     26 O          21.7481   25.0679    0.2827 O.2       3 UNK        -0.5152 
     27 CA         23.0151   23.4331   -0.9456 C.3       3 UNK         0.0319 
     28 CB         21.8416   23.1924   -1.9192 C.3       3 UNK        -0.2001 
     29 N          24.3074   23.2677   -1.6345 N.am      3 UNK        -0.4354 
     30 C          24.8048   23.9891   -2.6500 C.2       2 UNK         0.4964 
     31 O          24.2512   24.9851   -3.1184 O.2       2 UNK        -0.5047 
     32 CA         26.1470   23.5059   -3.2399 C.3       2 UNK         0.0288 
     33 CB         26.4967   24.2196   -4.5603 C.3       2 UNK        -0.2113 
     34 N          27.2851   23.6439   -2.3242 N.am      2 UNK        -0.4145 
     35 C          27.5253   22.8851   -1.2456 C.2       1 UNK         0.5006 
     36 O          26.7328   22.0387   -0.8190 O.2       1 UNK        -0.5103 
     37 C          28.0383   28.9469    1.3947 C.2       5 UNK         0.5055 
     38 O          28.3549   30.1029    1.6758 O.2       5 UNK        -0.5220 
     39 N          28.2979   28.3829    0.2094 N.am      6 UNK        -0.4450 
     40 CA         28.9858   29.0268   -0.9129 C.3       6 UNK         0.0367 
     41 CB         28.9431   28.0853   -2.1276 C.3       6 UNK        -0.1929 
     42 C          30.4376   29.4377   -0.6032 C.2       6 UNK         0.5070 
     43 O          30.9299   30.4006   -1.1911 O.2       6 UNK        -0.5237 
     44 N          31.0885   28.7107    0.3137 N.am      7 UNK        -0.4739 
     45 CA         32.4720   28.9296    0.7387 C.3       7 UNK         0.0276 
     46 CB         33.1963   27.5714    0.7614 C.3       7 UNK        -0.1927 
     47 C          32.5759   29.6413    2.1006 C.2       7 UNK         0.5013 
     48 O          33.6519   29.5986    2.6980 O.2       7 UNK        -0.5193 
     49 N          31.4897   30.2813    2.5738 N.am      8 UNK        -0.4253 
     50 CA         31.3442   30.9129    3.8996 C.3       8 UNK         0.0242 
     51 CB         30.0553   31.7492    3.9482 C.3       8 UNK        -0.2000 
     52 C          32.5248   31.7770    4.3754 C.2       8 UNK         0.4948 
     53 O          32.8589   31.7358    5.5599 O.2       8 UNK        -0.5275 
     54 N          33.1651   32.5001    3.4464 N.am      9 UNK        -0.4246 
     55 CA         34.3557   33.3228    3.6823 C.3       9 UNK         0.0261 
     56 CB         34.7314   34.0469    2.3792 C.3       9 UNK        -0.1959 
     57 C          35.5718   32.5540    4.2384 C.2       9 UNK         0.5033 
     58 O          36.4135   33.1716    4.8923 O.2       9 UNK        -0.5390 
     59 N          35.6470   31.2373    3.9925 N.am      10 UNK        -0.4215 
     60 CA         36.6790   30.3578    4.5456 C.3       10 UNK         0.0240 
     61 CB         36.8127   29.1122    3.6535 C.3       10 UNK        -0.1982 
     62 C          36.4050   29.9441    6.0039 C.2       10 UNK         0.4970 
     63 O          37.3437   29.5188    6.6789 O.2       10 UNK        -0.4916 
     64 N          35.1491   30.0525    6.4577 N.am      11 UNK        -0.4279 
     65 CA         34.7007   29.6557    7.8021 C.3       11 UNK         0.1003 
     66 C          34.4191   30.8794    8.7127 C.2       11 UNK         0.5709 
     67 N          33.9313   31.9948    8.1834 N.am      11 UNK        -0.7358 
     68 O          34.6591   30.8196    9.9163 O.2       11 UNK        -0.4999 
     69 C69        33.4626   28.7221    7.7424 C.3       12 UNK        -0.0954 
     70 S70        33.8067   27.1696    6.8440 S.3       12 UNK        -0.2268 
     71 C71        33.1542   27.5619    5.1915 C.3       12 UNK         0.0203 
     72 H72        29.7970   19.8959    1.6891 H         1 UNK         0.0888 
     73 H73        31.0853   19.3562    0.6111 H         1 UNK         0.0888 
     74 H74        29.4356   18.7701    0.3790 H         1 UNK         0.0888 
     75 H75        29.0484   21.9493    1.2166 H         1 UNK         0.3017 
     76 H76        29.6319   23.2467   -1.3230 H         1 UNK         0.0873 
     77 H77        28.1292   24.3168    1.1337 H         1 UNK         0.0745 
     78 H78        28.5880   25.2394   -0.2773 H         1 UNK         0.0745 
     79 H79        29.4977   23.5443    2.8528 H         1 UNK         0.0705 
     80 H80        31.2359   23.4371    2.8754 H         1 UNK         0.0705 
     81 H81        32.5989   25.5181    3.4855 H         1 UNK         0.1334 
     82 H82        30.7289   28.1381    6.3129 H         1 UNK         0.1417 
     83 H83        28.3915   25.1988    4.2362 H         1 UNK         0.1562 
     84 H84        28.4028   28.1034    6.6778 H         1 UNK         0.0748 
     85 H85        27.9457   26.4307    6.8783 H         1 UNK         0.0748 
     86 H86        28.3634   28.9455    4.1220 H         1 UNK         0.0940 
     87 H87        26.7519   29.5769    3.9115 H         1 UNK         0.0940 
     88 H88        27.8527   27.1191    2.4541 H         1 UNK         0.0703 
     89 H89        25.2013   28.2495    2.5119 H         1 UNK         0.3081 
     90 H90        23.5654   26.6447    1.7206 H         1 UNK         0.0719 
     91 H91        24.0254   27.9972   -1.0182 H         1 UNK         0.0809 
     92 H92        22.4555   27.7707   -0.2513 H         1 UNK         0.0809 
     93 H93        23.6362   28.8482    0.4718 H         1 UNK         0.0809 
     94 H94        24.8364   25.1448   -0.3429 H         1 UNK         0.2990 
     95 H95        22.9816   22.6422   -0.1950 H         1 UNK         0.0690 
     96 H96        21.9477   22.2418   -2.4417 H         1 UNK         0.0788 
     97 H97        21.7684   23.9816   -2.6681 H         1 UNK         0.0788 
     98 H98        20.8897   23.1621   -1.3876 H         1 UNK         0.0788 
     99 H99        24.9060   22.5283   -1.2739 H         1 UNK         0.2993 
    100 H100       26.0245   22.4443   -3.4674 H         1 UNK         0.0949 
    101 H101       25.6892   24.1168   -5.2867 H         1 UNK         0.0767 
    102 H102       26.6670   25.2868   -4.4105 H         1 UNK         0.0767 
    103 H103       27.3926   23.7969   -5.0156 H         1 UNK         0.0767 
    104 H104       27.9690   24.3409   -2.5805 H         1 UNK         0.3013 
    105 H105       27.9113   27.4564    0.0494 H         1 UNK         0.3121 
    106 H106       28.4340   29.9361   -1.1605 H         1 UNK         0.0774 
    107 H107       27.9177   27.8390   -2.4047 H         1 UNK         0.0815 
    108 H108       29.4728   27.1519   -1.9324 H         1 UNK         0.0815 
    109 H109       29.4103   28.5494   -2.9973 H         1 UNK         0.0815 
    110 H110       30.6015   27.9375    0.7455 H         1 UNK         0.2987 
    111 H111       32.9883   29.5671    0.0178 H         1 UNK         0.0949 
    112 H112       32.7669   26.9008    1.5047 H         1 UNK         0.0806 
    113 H113       33.1398   27.0753   -0.2076 H         1 UNK         0.0806 
    114 H114       34.2542   27.6894    1.0003 H         1 UNK         0.0806 
    115 H115       30.6539   30.2643    2.0025 H         1 UNK         0.3010 
    116 H116       31.2396   30.1025    4.6218 H         1 UNK         0.0829 
    117 H117       29.1681   31.1239    3.8826 H         1 UNK         0.0813 
    118 H118       29.9764   32.3010    4.8865 H         1 UNK         0.0813 
    119 H119       30.0143   32.4771    3.1371 H         1 UNK         0.0813 
    120 H120       32.8263   32.4538    2.4965 H         1 UNK         0.3038 
    121 H121       34.0861   34.0750    4.4266 H         1 UNK         0.0769 
    122 H122       34.9815   33.3428    1.5845 H         1 UNK         0.0811 
    123 H123       35.5984   34.6925    2.5270 H         1 UNK         0.0811 
    124 H124       33.9169   34.6795    2.0259 H         1 UNK         0.0811 
    125 H125       34.9079   30.7848    3.4562 H         1 UNK         0.3204 
    126 H126       37.6347   30.8864    4.5287 H         1 UNK         0.0748 
    127 H127       37.0281   29.3841    2.6201 H         1 UNK         0.0771 
    128 H128       37.6262   28.4718    3.9971 H         1 UNK         0.0771 
    129 H129       35.9029   28.5114    3.6590 H         1 UNK         0.0771 
    130 H130       34.4456   30.4856    5.8724 H         1 UNK         0.2980 
    131 H131       35.4950   29.0923    8.2956 H         1 UNK         0.0545 
    132 H132       33.7588   32.7889    8.7781 H         1 UNK         0.3459 
    133 H133       33.6424   32.0179    7.2090 H         1 UNK         0.3459 
    134 H134       33.1480   28.4468    8.7507 H         1 UNK         0.0616 
    135 H135       32.6122   29.2359    7.2911 H         1 UNK         0.0616 
    136 H136       33.8862   27.2411    4.4492 H         1 UNK         0.0634 
    137 H137       33.0632   28.6400    5.0714 H         1 UNK         0.0634 
@<TRIPOS>BOND
     1    1    2 1    
     2    1   72 1    
     3    1   73 1    
     4    1   74 1    
     5    2    3 2    
     6    2    4 am   BACKBONE|DICT|INTERRES
     7    4    5 1    
     8    4   75 1    
     9    5    6 1    
    10    5   35 1    
    11    5   76 1    
    12    6    7 1    
    13    6   77 1    
    14    6   78 1    
    15    7    8 1    
    16    8    9 1    
    17    8   79 1    
    18    8   80 1    
    19    9   10 ar   
    20    9   14 ar   
    21   10   11 ar   
    22   10   81 1    
    23   11   12 ar   
    24   11   71 1    
    25   12   13 ar   
    26   12   82 1    
    27   13   14 ar   
    28   13   15 1    
    29   14   83 1    
    30   15   16 1    
    31   15   84 1    
    32   15   85 1    
    33   16   17 1    
    34   17   18 1    
    35   17   86 1    
    36   17   87 1    
    37   18   19 1    
    38   18   37 1    
    39   18   88 1    
    40   19   20 am   BACKBONE|DICT|INTERRES
    41   19   89 1    
    42   20   21 2    
    43   20   22 1    
    44   22   23 1    
    45   22   24 1    
    46   22   90 1    
    47   23   91 1    
    48   23   92 1    
    49   23   93 1    
    50   24   25 am   BACKBONE|DICT|INTERRES
    51   24   94 1    
    52   25   26 2    
    53   25   27 1    
    54   27   28 1    
    55   27   29 1    
    56   27   95 1    
    57   28   96 1    
    58   28   97 1    
    59   28   98 1    
    60   29   30 am   BACKBONE|DICT|INTERRES
    61   29   99 1    
    62   30   31 2    
    63   30   32 1    
    64   32   33 1    
    65   32   34 1    
    66   32  100 1    
    67   33  101 1    
    68   33  102 1    
    69   33  103 1    
    70   34   35 am   BACKBONE|DICT|INTERRES
    71   34  104 1    
    72   35   36 2    
    73   37   38 2    
    74   37   39 am   BACKBONE|DICT|INTERRES
    75   39   40 1    
    76   39  105 1    
    77   40   41 1    
    78   40   42 1    
    79   40  106 1    
    80   41  107 1    
    81   41  108 1    
    82   41  109 1    
    83   42   43 2    
    84   42   44 am   BACKBONE|DICT|INTERRES
    85   44   45 1    
    86   44  110 1    
    87   45   46 1    
    88   45   47 1    
    89   45  111 1    
    90   46  112 1    
    91   46  113 1    
    92   46  114 1    
    93   47   48 2    
    94   47   49 am   BACKBONE|DICT|INTERRES
    95   49   50 1    
    96   49  115 1    
    97   50   51 1    
    98   50   52 1    
    99   50  116 1    
   100   51  117 1    
   101   51  118 1    
   102   51  119 1    
   103   52   53 2    
   104   52   54 am   BACKBONE|DICT|INTERRES
   105   54   55 1    
   106   54  120 1    
   107   55   56 1    
   108   55   57 1    
   109   55  121 1    
   110   56  122 1    
   111   56  123 1    
   112   56  124 1    
   113   57   58 2    
   114   57   59 am   BACKBONE|DICT|INTERRES
   115   59   60 1    
   116   59  125 1    
   117   60   61 1    
   118   60   62 1    
   119   60  126 1    
   120   61  127 1    
   121   61  128 1    
   122   61  129 1    
   123   62   63 2    
   124   62   64 am   BACKBONE|DICT|INTERRES
   125   64   65 1    
   126   64  130 1    
   127   65   66 1    
   128   65   69 1    
   129   65  131 1    
   130   66   67 am   BACKBONE|DICT|INTERRES
   131   66   68 2    
   132   67  132 1    
   133   67  133 1    
   134   69   70 1    
   135   69  134 1    
   136   69  135 1    
   137   70   71 1    
   138   71  136 1    
   139   71  137 1    
@<TRIPOS>SUBSTRUCTURE
     1 UNK         1 GROUP             0       ****    0 ROOT    
