@<TRIPOS>MOLECULE
3R136
137   139    1
SMALL
USER_CHARGES


@<TRIPOS>ATOM
      1 CA         24.3476   28.6526    5.1330 C.3       0 UNK        -0.1979 
      2 C          25.1835   27.3865    5.0142 C.2       0 UNK         0.4864 
      3 O          25.0856   26.5087    5.8723 O.2       0 UNK        -0.5359 
      4 N          25.9988   27.2909    3.9578 N.am      1 UNK        -0.4318 
      5 CA         26.7671   26.0979    3.6002 C.3       1 UNK         0.0824 
      6 C6         28.1223   26.4575    2.9390 C.3       12 UNK        -0.0944 
      7 S7         29.3102   25.0741    2.9807 S.3       12 UNK        -0.2672 
      8 C8         30.7116   25.8017    3.8876 C.3       12 UNK         0.0333 
      9 C9         31.7495   26.3757    2.9350 C.ar      12 UNK        -0.0807 
     10 C10        32.8962   25.6364    2.6344 C.ar      12 UNK        -0.0894 
     11 C11        33.8709   26.1491    1.7743 C.ar      12 UNK        -0.0804 
     12 C12        33.6753   27.4018    1.1862 C.ar      12 UNK        -0.0824 
     13 C13        32.5394   28.1588    1.4886 C.ar      12 UNK        -0.0762 
     14 C14        31.5813   27.6433    2.3694 C.ar      12 UNK        -0.0782 
     15 C15        32.3768   29.5488    0.8896 C.3       12 UNK         0.0230 
     16 S16        31.6924   29.4957   -0.7954 S.3       12 UNK        -0.2608 
     17 C17        29.9254   29.2283   -0.4410 C.3       12 UNK        -0.0989 
     18 CA         29.2477   28.1911   -1.3720 C.3       5 UNK         0.0716 
     19 N          29.8404   26.8639   -1.2542 N.am      5 UNK        -0.4135 
     20 C          30.6023   26.2491   -2.1621 C.2       4 UNK         0.5031 
     21 O          31.0544   26.7857   -3.1748 O.2       4 UNK        -0.5229 
     22 CA         30.8660   24.7527   -1.9128 C.3       4 UNK         0.0329 
     23 CB         32.1177   24.5669   -1.0410 C.3       4 UNK        -0.2001 
     24 N          29.7328   24.0606   -1.2844 N.am      4 UNK        -0.4303 
     25 C          28.5132   23.9212   -1.8269 C.2       3 UNK         0.5044 
     26 O          28.2070   24.3371   -2.9450 O.2       3 UNK        -0.5152 
     27 CA         27.4466   23.2131   -0.9837 C.3       3 UNK         0.0319 
     28 CB         28.0120   22.3472    0.1642 C.3       3 UNK        -0.2001 
     29 N          26.5346   24.2208   -0.4502 N.am      3 UNK        -0.4354 
     30 C          25.2596   24.0020   -0.1088 C.2       2 UNK         0.4964 
     31 O          24.6782   22.9288   -0.2846 O.2       2 UNK        -0.5047 
     32 CA         24.5301   25.1774    0.5762 C.3       2 UNK         0.0288 
     33 CB         23.1384   24.7929    1.1213 C.3       2 UNK        -0.2113 
     34 N          25.3345   25.8042    1.6340 N.am      2 UNK        -0.4145 
     35 C          25.9092   25.2002    2.6903 C.2       1 UNK         0.5006 
     36 O          25.7741   24.0079    2.9712 O.2       1 UNK        -0.5103 
     37 C          27.7620   28.0481   -0.9975 C.2       5 UNK         0.5055 
     38 O          27.3497   27.0019   -0.4828 O.2       5 UNK        -0.5220 
     39 N          26.9889   29.1197   -1.2112 N.am      6 UNK        -0.4450 
     40 CA         25.6579   29.2764   -0.6263 C.3       6 UNK         0.0367 
     41 CB         24.8641   30.3509   -1.3896 C.3       6 UNK        -0.1929 
     42 C          25.7776   29.6068    0.8707 C.2       6 UNK         0.5070 
     43 O          25.3393   28.8138    1.7039 O.2       6 UNK        -0.5237 
     44 N          26.4032   30.7514    1.1783 N.am      7 UNK        -0.4739 
     45 CA         26.6471   31.2487    2.5357 C.3       7 UNK         0.0276 
     46 CB         27.1076   32.7129    2.4484 C.3       7 UNK        -0.1927 
     47 C          27.6871   30.4114    3.3003 C.2       7 UNK         0.5013 
     48 O          28.5646   29.8080    2.6809 O.2       7 UNK        -0.5193 
     49 N          27.5754   30.4082    4.6350 N.am      8 UNK        -0.4253 
     50 CA         28.4962   29.7223    5.5444 C.3       8 UNK         0.0242 
     51 CB         27.8667   29.6482    6.9452 C.3       8 UNK        -0.2000 
     52 C          29.8644   30.4204    5.6095 C.2       8 UNK         0.4948 
     53 O          29.9193   31.6524    5.6342 O.2       8 UNK        -0.5275 
     54 N          30.9301   29.6181    5.6881 N.am      9 UNK        -0.4246 
     55 CA         32.3229   30.0268    5.8446 C.3       9 UNK         0.0261 
     56 CB         32.8532   30.6743    4.5485 C.3       9 UNK        -0.1959 
     57 C          33.1395   28.7761    6.1951 C.2       9 UNK         0.5033 
     58 O          32.6390   27.6588    6.0424 O.2       9 UNK        -0.5390 
     59 N          34.3923   28.9842    6.6151 N.am      10 UNK        -0.4215 
     60 CA         35.3832   27.9311    6.8679 C.3       10 UNK         0.0240 
     61 CB         36.0804   28.2127    8.2131 C.3       10 UNK        -0.1982 
     62 C          36.3820   27.8237    5.6971 C.2       10 UNK         0.4970 
     63 O          37.5767   27.6271    5.9253 O.2       10 UNK        -0.4916 
     64 N          35.8760   27.9914    4.4678 N.am      11 UNK        -0.4279 
     65 CA         36.6245   28.0111    3.1975 C.3       11 UNK         0.1003 
     66 C          37.6071   29.2104    3.0250 C.2       11 UNK         0.5709 
     67 N          37.5104   30.2678    3.8224 N.am      11 UNK        -0.7358 
     68 O          38.4499   29.2038    2.1305 O.2       11 UNK        -0.4999 
     69 C69        37.2783   26.6467    2.8263 C.3       12 UNK        -0.0954 
     70 S70        36.1801   25.1945    2.9682 S.3       12 UNK        -0.2268 
     71 C71        35.1264   25.3380    1.4872 C.3       12 UNK         0.0203 
     72 H72        24.5094   29.3284    4.2941 H         1 UNK         0.0888 
     73 H73        23.2883   28.3990    5.1598 H         1 UNK         0.0888 
     74 H74        24.5935   29.1839    6.0517 H         1 UNK         0.0888 
     75 H75        25.9480   28.0107    3.2400 H         1 UNK         0.3017 
     76 H76        26.9814   25.5374    4.5132 H         1 UNK         0.0873 
     77 H77        27.9987   26.7947    1.9122 H         1 UNK         0.0745 
     78 H78        28.5645   27.3037    3.4573 H         1 UNK         0.0745 
     79 H79        30.3725   26.5657    4.5875 H         1 UNK         0.0705 
     80 H80        31.1636   25.0222    4.5028 H         1 UNK         0.0705 
     81 H81        33.0403   24.6618    3.0805 H         1 UNK         0.1334 
     82 H82        34.4165   27.7999    0.5067 H         1 UNK         0.1417 
     83 H83        30.7060   28.2272    2.6181 H         1 UNK         0.1562 
     84 H84        33.3476   30.0456    0.8573 H         1 UNK         0.0748 
     85 H85        31.7409   30.1715    1.5215 H         1 UNK         0.0748 
     86 H86        29.4361   30.2010   -0.5148 H         1 UNK         0.0940 
     87 H87        29.8078   28.9186    0.5967 H         1 UNK         0.0940 
     88 H88        29.2998   28.5354   -2.4070 H         1 UNK         0.0703 
     89 H89        29.4599   26.3125   -0.4981 H         1 UNK         0.3081 
     90 H90        31.0475   24.2838   -2.8821 H         1 UNK         0.0719 
     91 H91        31.9672   24.9701   -0.0394 H         1 UNK         0.0809 
     92 H92        32.3850   23.5147   -0.9439 H         1 UNK         0.0809 
     93 H93        32.9773   25.0818   -1.4725 H         1 UNK         0.0809 
     94 H94        29.8898   23.6797   -0.3623 H         1 UNK         0.2990 
     95 H95        26.8987   22.5599   -1.6664 H         1 UNK         0.0690 
     96 H96        28.7480   21.6309   -0.2036 H         1 UNK         0.0788 
     97 H97        27.2199   21.7705    0.6423 H         1 UNK         0.0788 
     98 H98        28.4839   22.9502    0.9403 H         1 UNK         0.0788 
     99 H99        26.9074   25.1644   -0.3547 H         1 UNK         0.2993 
    100 H100       24.3874   25.9358   -0.1948 H         1 UNK         0.0949 
    101 H101       22.6366   25.6526    1.5656 H         1 UNK         0.0767 
    102 H102       22.4950   24.4188    0.3239 H         1 UNK         0.0767 
    103 H103       23.2037   24.0133    1.8812 H         1 UNK         0.0767 
    104 H104       25.5023   26.7978    1.5128 H         1 UNK         0.3013 
    105 H105       27.3883   29.9299   -1.6627 H         1 UNK         0.3121 
    106 H106       25.1141   28.3338   -0.7199 H         1 UNK         0.0774 
    107 H107       25.3670   31.3183   -1.3897 H         1 UNK         0.0815 
    108 H108       23.8789   30.4954   -0.9439 H         1 UNK         0.0815 
    109 H109       24.7070   30.0586   -2.4280 H         1 UNK         0.0815 
    110 H110       26.7698   31.3153    0.4269 H         1 UNK         0.2987 
    111 H111       25.7017   31.2107    3.0810 H         1 UNK         0.0949 
    112 H112       26.3627   33.3360    1.9529 H         1 UNK         0.0806 
    113 H113       27.2703   33.1344    3.4414 H         1 UNK         0.0806 
    114 H114       28.0455   32.8075    1.8992 H         1 UNK         0.0806 
    115 H115       26.8710   30.9877    5.0673 H         1 UNK         0.3010 
    116 H116       28.6390   28.7030    5.1853 H         1 UNK         0.0829 
    117 H117       27.6640   30.6405    7.3504 H         1 UNK         0.0813 
    118 H118       26.9310   29.0905    6.9343 H         1 UNK         0.0813 
    119 H119       28.5318   29.1414    7.6458 H         1 UNK         0.0813 
    120 H120       30.8174   28.6110    5.7102 H         1 UNK         0.3038 
    121 H121       32.3899   30.7357    6.6724 H         1 UNK         0.0769 
    122 H122       33.8746   31.0345    4.6737 H         1 UNK         0.0811 
    123 H123       32.8591   29.9633    3.7240 H         1 UNK         0.0811 
    124 H124       32.2510   31.5306    4.2457 H         1 UNK         0.0811 
    125 H125       34.7205   29.9358    6.7060 H         1 UNK         0.3204 
    126 H126       34.8904   26.9598    6.9477 H         1 UNK         0.0748 
    127 H127       36.7788   27.4146    8.4687 H         1 UNK         0.0771 
    128 H128       36.6442   29.1462    8.1893 H         1 UNK         0.0771 
    129 H129       35.3576   28.2781    9.0267 H         1 UNK         0.0771 
    130 H130       34.8784   28.1154    4.3813 H         1 UNK         0.2980 
    131 H131       35.8688   28.2102    2.4426 H         1 UNK         0.0545 
    132 H132       38.1438   31.0407    3.6919 H         1 UNK         0.3459 
    133 H133       36.8250   30.2952    4.5579 H         1 UNK         0.3459 
    134 H134       38.1420   26.4640    3.4675 H         1 UNK         0.0616 
    135 H135       37.6661   26.6739    1.8066 H         1 UNK         0.0616 
    136 H136       35.6964   25.7663    0.6616 H         1 UNK         0.0634 
    137 H137       34.8325   24.3367    1.1692 H         1 UNK         0.0634 
@<TRIPOS>BOND
     1    1    2 1    
     2    1   72 1    
     3    1   73 1    
     4    1   74 1    
     5    2    3 2    
     6    2    4 am   BACKBONE|DICT|INTERRES
     7    4    5 1    
     8    4   75 1    
     9    5    6 1    
    10    5   35 1    
    11    5   76 1    
    12    6    7 1    
    13    6   77 1    
    14    6   78 1    
    15    7    8 1    
    16    8    9 1    
    17    8   79 1    
    18    8   80 1    
    19    9   10 ar   
    20    9   14 ar   
    21   10   11 ar   
    22   10   81 1    
    23   11   12 ar   
    24   11   71 1    
    25   12   13 ar   
    26   12   82 1    
    27   13   14 ar   
    28   13   15 1    
    29   14   83 1    
    30   15   16 1    
    31   15   84 1    
    32   15   85 1    
    33   16   17 1    
    34   17   18 1    
    35   17   86 1    
    36   17   87 1    
    37   18   19 1    
    38   18   37 1    
    39   18   88 1    
    40   19   20 am   BACKBONE|DICT|INTERRES
    41   19   89 1    
    42   20   21 2    
    43   20   22 1    
    44   22   23 1    
    45   22   24 1    
    46   22   90 1    
    47   23   91 1    
    48   23   92 1    
    49   23   93 1    
    50   24   25 am   BACKBONE|DICT|INTERRES
    51   24   94 1    
    52   25   26 2    
    53   25   27 1    
    54   27   28 1    
    55   27   29 1    
    56   27   95 1    
    57   28   96 1    
    58   28   97 1    
    59   28   98 1    
    60   29   30 am   BACKBONE|DICT|INTERRES
    61   29   99 1    
    62   30   31 2    
    63   30   32 1    
    64   32   33 1    
    65   32   34 1    
    66   32  100 1    
    67   33  101 1    
    68   33  102 1    
    69   33  103 1    
    70   34   35 am   BACKBONE|DICT|INTERRES
    71   34  104 1    
    72   35   36 2    
    73   37   38 2    
    74   37   39 am   BACKBONE|DICT|INTERRES
    75   39   40 1    
    76   39  105 1    
    77   40   41 1    
    78   40   42 1    
    79   40  106 1    
    80   41  107 1    
    81   41  108 1    
    82   41  109 1    
    83   42   43 2    
    84   42   44 am   BACKBONE|DICT|INTERRES
    85   44   45 1    
    86   44  110 1    
    87   45   46 1    
    88   45   47 1    
    89   45  111 1    
    90   46  112 1    
    91   46  113 1    
    92   46  114 1    
    93   47   48 2    
    94   47   49 am   BACKBONE|DICT|INTERRES
    95   49   50 1    
    96   49  115 1    
    97   50   51 1    
    98   50   52 1    
    99   50  116 1    
   100   51  117 1    
   101   51  118 1    
   102   51  119 1    
   103   52   53 2    
   104   52   54 am   BACKBONE|DICT|INTERRES
   105   54   55 1    
   106   54  120 1    
   107   55   56 1    
   108   55   57 1    
   109   55  121 1    
   110   56  122 1    
   111   56  123 1    
   112   56  124 1    
   113   57   58 2    
   114   57   59 am   BACKBONE|DICT|INTERRES
   115   59   60 1    
   116   59  125 1    
   117   60   61 1    
   118   60   62 1    
   119   60  126 1    
   120   61  127 1    
   121   61  128 1    
   122   61  129 1    
   123   62   63 2    
   124   62   64 am   BACKBONE|DICT|INTERRES
   125   64   65 1    
   126   64  130 1    
   127   65   66 1    
   128   65   69 1    
   129   65  131 1    
   130   66   67 am   BACKBONE|DICT|INTERRES
   131   66   68 2    
   132   67  132 1    
   133   67  133 1    
   134   69   70 1    
   135   69  134 1    
   136   69  135 1    
   137   70   71 1    
   138   71  136 1    
   139   71  137 1    
@<TRIPOS>SUBSTRUCTURE
     1 UNK         1 GROUP             0       ****    0 ROOT    
