@<TRIPOS>MOLECULE
3R136
137   139    1
SMALL
USER_CHARGES


@<TRIPOS>ATOM
      1 CA         32.3183   25.7958   -3.9684 C.3       0 UNK        -0.1979 
      2 C          31.2489   26.3323   -3.0285 C.2       0 UNK         0.4864 
      3 O          30.5244   27.2588   -3.3932 O.2       0 UNK        -0.5359 
      4 N          31.1472   25.7572   -1.8225 N.am      1 UNK        -0.4318 
      5 CA         30.1629   26.1195   -0.7949 C.3       1 UNK         0.0824 
      6 C6         30.5559   25.5457    0.5912 C.3       12 UNK        -0.0944 
      7 S7         30.6563   23.7205    0.6372 S.3       12 UNK        -0.2672 
      8 C8         31.6302   23.4262    2.1488 C.3       12 UNK         0.0333 
      9 C9         30.8909   23.8201    3.4227 C.ar      12 UNK        -0.0807 
     10 C10        31.4898   24.6929    4.3368 C.ar      12 UNK        -0.0894 
     11 C11        30.8356   25.0542    5.5231 C.ar      12 UNK        -0.0804 
     12 C12        29.5665   24.5270    5.7779 C.ar      12 UNK        -0.0824 
     13 C13        28.9549   23.6506    4.8764 C.ar      12 UNK        -0.0762 
     14 C14        29.6265   23.2925    3.7047 C.ar      12 UNK        -0.0782 
     15 C15        27.5681   23.0949    5.1776 C.3       12 UNK         0.0230 
     16 S16        26.2898   23.6875    4.0181 S.3       12 UNK        -0.2608 
     17 C17        26.5135   25.5004    4.0568 C.3       12 UNK        -0.0989 
     18 CA         26.8855   26.0382    2.6470 C.3       5 UNK         0.0716 
     19 N          25.7901   25.8999    1.6752 N.am      5 UNK        -0.4135 
     20 C          24.6168   26.5567    1.7018 C.2       4 UNK         0.5031 
     21 O          24.2894   27.3420    2.5926 O.2       4 UNK        -0.5229 
     22 CA         23.6396   26.3397    0.5307 C.3       4 UNK         0.0329 
     23 CB         23.7169   27.5270   -0.4441 C.3       4 UNK        -0.2001 
     24 N          23.8798   25.1059   -0.2144 N.am      4 UNK        -0.4303 
     25 C          23.6428   23.8651    0.2342 C.2       3 UNK         0.5044 
     26 O          23.0763   23.6168    1.2986 O.2       3 UNK        -0.5152 
     27 CA         24.1415   22.7034   -0.6500 C.3       3 UNK         0.0319 
     28 CB         22.9720   22.0762   -1.4262 C.3       3 UNK        -0.2001 
     29 N          25.1956   23.0929   -1.5977 N.am      3 UNK        -0.4354 
     30 C          26.4087   23.5458   -1.2481 C.2       2 UNK         0.4964 
     31 O          26.7856   23.6150   -0.0762 O.2       2 UNK        -0.5047 
     32 CA         27.3192   24.0194   -2.4006 C.3       2 UNK         0.0288 
     33 CB         26.5853   24.9707   -3.3734 C.3       2 UNK        -0.2113 
     34 N          28.5679   24.6369   -1.9362 N.am      2 UNK        -0.4145 
     35 C          28.7154   25.7430   -1.1870 C.2       1 UNK         0.5006 
     36 O          27.7822   26.4543   -0.8057 O.2       1 UNK        -0.5103 
     37 C          27.4487   27.4793    2.6617 C.2       5 UNK         0.5055 
     38 O          27.7735   28.0200    3.7206 O.2       5 UNK        -0.5220 
     39 N          27.5569   28.0843    1.4713 N.am      6 UNK        -0.4450 
     40 CA         27.9601   29.4710    1.2426 C.3       6 UNK         0.0367 
     41 CB         27.2666   29.9760   -0.0362 C.3       6 UNK        -0.1929 
     42 C          29.4907   29.6181    1.1817 C.2       6 UNK         0.5070 
     43 O          30.0232   30.2044    0.2379 O.2       6 UNK        -0.5237 
     44 N          30.1878   29.0941    2.1960 N.am      7 UNK        -0.4739 
     45 CA         31.6463   29.1372    2.3402 C.3       7 UNK         0.0276 
     46 CB         32.0799   27.9892    3.2668 C.3       7 UNK        -0.1927 
     47 C          32.1424   30.5056    2.8463 C.2       7 UNK         0.5013 
     48 O          32.8816   30.5625    3.8297 O.2       7 UNK        -0.5193 
     49 N          31.7249   31.5904    2.1806 N.am      8 UNK        -0.4253 
     50 CA         31.9446   32.9871    2.5822 C.3       8 UNK         0.0242 
     51 CB         31.2335   33.9132    1.5822 C.3       8 UNK        -0.2000 
     52 C          33.4200   33.4007    2.7441 C.2       8 UNK         0.4948 
     53 O          33.7083   34.3132    3.5190 O.2       8 UNK        -0.5275 
     54 N          34.3234   32.7179    2.0298 N.am      9 UNK        -0.4246 
     55 CA         35.7737   32.8909    2.1274 C.3       9 UNK         0.0261 
     56 CB         36.4081   32.4538    0.7952 C.3       9 UNK        -0.1959 
     57 C          36.4119   32.1249    3.3052 C.2       9 UNK         0.5033 
     58 O          37.6095   32.3014    3.5374 O.2       9 UNK        -0.5390 
     59 N          35.6449   31.2759    4.0032 N.am      10 UNK        -0.4215 
     60 CA         36.1199   30.3937    5.0652 C.3       10 UNK         0.0240 
     61 CB         36.4648   29.0128    4.4636 C.3       10 UNK        -0.1982 
     62 C          35.0883   30.3577    6.2049 C.2       10 UNK         0.4970 
     63 O          34.8624   31.3882    6.8409 O.2       10 UNK        -0.4916 
     64 N          34.5149   29.1777    6.4672 N.am      11 UNK        -0.4279 
     65 CA         33.5916   28.8827    7.5731 C.3       11 UNK         0.1003 
     66 C          32.1703   29.5128    7.4866 C.2       11 UNK         0.5709 
     67 N          31.7724   30.1465    6.3928 N.am      11 UNK        -0.7358 
     68 O          31.4110   29.4344    8.4495 O.2       11 UNK        -0.4999 
     69 C69        33.5445   27.3579    7.8717 C.3       12 UNK        -0.0954 
     70 S70        33.2308   26.3090    6.4079 S.3       12 UNK        -0.2268 
     71 C71        31.4342   26.0195    6.5504 C.3       12 UNK         0.0203 
     72 H72        33.0161   26.5894   -4.2344 H         1 UNK         0.0888 
     73 H73        32.8866   24.9819   -3.5183 H         1 UNK         0.0888 
     74 H74        31.8601   25.4234   -4.8842 H         1 UNK         0.0888 
     75 H75        31.7715   25.0017   -1.5753 H         1 UNK         0.3017 
     76 H76        30.1800   27.2085   -0.7096 H         1 UNK         0.0873 
     77 H77        29.8622   25.8833    1.3622 H         1 UNK         0.0745 
     78 H78        31.5306   25.9452    0.8725 H         1 UNK         0.0745 
     79 H79        31.8751   22.3647    2.2038 H         1 UNK         0.0705 
     80 H80        32.5805   23.9558    2.0652 H         1 UNK         0.0705 
     81 H81        32.4698   25.0885    4.1137 H         1 UNK         0.1334 
     82 H82        29.0481   24.8065    6.6853 H         1 UNK         0.1417 
     83 H83        29.1569   22.6151    3.0038 H         1 UNK         0.1562 
     84 H84        27.2614   23.3505    6.1931 H         1 UNK         0.0748 
     85 H85        27.6025   22.0054    5.1366 H         1 UNK         0.0748 
     86 H86        27.2786   25.7546    4.7899 H         1 UNK         0.0940 
     87 H87        25.5973   25.9625    4.4262 H         1 UNK         0.0940 
     88 H88        27.7000   25.4205    2.2653 H         1 UNK         0.0703 
     89 H89        25.9772   25.2565    0.9134 H         1 UNK         0.3081 
     90 H90        22.6305   26.2970    0.9462 H         1 UNK         0.0719 
     91 H91        23.5118   28.4677    0.0691 H         1 UNK         0.0809 
     92 H92        24.7058   27.6136   -0.8974 H         1 UNK         0.0809 
     93 H93        22.9849   27.4323   -1.2464 H         1 UNK         0.0809 
     94 H94        24.3332   25.2020   -1.1106 H         1 UNK         0.2990 
     95 H95        24.5571   21.9455    0.0175 H         1 UNK         0.0690 
     96 H96        23.2935   21.2007   -1.9909 H         1 UNK         0.0788 
     97 H97        22.5252   22.7839   -2.1258 H         1 UNK         0.0788 
     98 H98        22.1838   21.7486   -0.7466 H         1 UNK         0.0788 
     99 H99        24.9579   23.0487   -2.5785 H         1 UNK         0.2993 
    100 H100       27.6107   23.1245   -2.9526 H         1 UNK         0.0949 
    101 H101       26.1608   25.8330   -2.8579 H         1 UNK         0.0767 
    102 H102       27.2634   25.3471   -4.1398 H         1 UNK         0.0767 
    103 H103       25.7712   24.4665   -3.8945 H         1 UNK         0.0767 
    104 H104       29.4083   24.1163   -2.1421 H         1 UNK         0.3013 
    105 H105       27.3835   27.5288    0.6347 H         1 UNK         0.3121 
    106 H106       27.6112   30.0856    2.0753 H         1 UNK         0.0774 
    107 H107       27.5817   29.4105   -0.9145 H         1 UNK         0.0815 
    108 H108       26.1823   29.8951    0.0426 H         1 UNK         0.0815 
    109 H109       27.4990   31.0256   -0.2212 H         1 UNK         0.0815 
    110 H110       29.6627   28.6745    2.9557 H         1 UNK         0.2987 
    111 H111       32.1032   28.9698    1.3624 H         1 UNK         0.0949 
    112 H112       31.7393   27.0298    2.8863 H         1 UNK         0.0806 
    113 H113       33.1657   27.9363    3.3535 H         1 UNK         0.0806 
    114 H114       31.6758   28.1084    4.2725 H         1 UNK         0.0806 
    115 H115       31.1308   31.4298    1.3726 H         1 UNK         0.3010 
    116 H116       31.4735   33.1147    3.5591 H         1 UNK         0.0829 
    117 H117       31.6351   33.8017    0.5742 H         1 UNK         0.0813 
    118 H118       31.3503   34.9601    1.8664 H         1 UNK         0.0813 
    119 H119       30.1634   33.7082    1.5421 H         1 UNK         0.0813 
    120 H120       33.9912   31.9888    1.4154 H         1 UNK         0.3038 
    121 H121       35.9936   33.9505    2.2752 H         1 UNK         0.0769 
    122 H122       36.0069   33.0249   -0.0423 H         1 UNK         0.0811 
    123 H123       36.2374   31.3954    0.5943 H         1 UNK         0.0811 
    124 H124       37.4873   32.6130    0.8039 H         1 UNK         0.0811 
    125 H125       34.6475   31.2157    3.8073 H         1 UNK         0.3204 
    126 H126       37.0301   30.8047    5.5069 H         1 UNK         0.0748 
    127 H127       35.6057   28.5546    3.9719 H         1 UNK         0.0771 
    128 H128       37.2567   29.1011    3.7194 H         1 UNK         0.0771 
    129 H129       36.8270   28.3233    5.2276 H         1 UNK         0.0771 
    130 H130       34.7311   28.3924    5.8718 H         1 UNK         0.2980 
    131 H131       34.0312   29.3497    8.4565 H         1 UNK         0.0545 
    132 H132       32.3757   30.2351    5.5803 H         1 UNK         0.3459 
    133 H133       30.8515   30.5517    6.3759 H         1 UNK         0.3459 
    134 H134       32.8233   27.1264    8.6577 H         1 UNK         0.0616 
    135 H135       34.5104   27.0504    8.2751 H         1 UNK         0.0616 
    136 H136       31.2312   25.6400    7.5530 H         1 UNK         0.0634 
    137 H137       30.9164   26.9755    6.4663 H         1 UNK         0.0634 
@<TRIPOS>BOND
     1    1    2 1    
     2    1   72 1    
     3    1   73 1    
     4    1   74 1    
     5    2    3 2    
     6    2    4 am   BACKBONE|DICT|INTERRES
     7    4    5 1    
     8    4   75 1    
     9    5    6 1    
    10    5   35 1    
    11    5   76 1    
    12    6    7 1    
    13    6   77 1    
    14    6   78 1    
    15    7    8 1    
    16    8    9 1    
    17    8   79 1    
    18    8   80 1    
    19    9   10 ar   
    20    9   14 ar   
    21   10   11 ar   
    22   10   81 1    
    23   11   12 ar   
    24   11   71 1    
    25   12   13 ar   
    26   12   82 1    
    27   13   14 ar   
    28   13   15 1    
    29   14   83 1    
    30   15   16 1    
    31   15   84 1    
    32   15   85 1    
    33   16   17 1    
    34   17   18 1    
    35   17   86 1    
    36   17   87 1    
    37   18   19 1    
    38   18   37 1    
    39   18   88 1    
    40   19   20 am   BACKBONE|DICT|INTERRES
    41   19   89 1    
    42   20   21 2    
    43   20   22 1    
    44   22   23 1    
    45   22   24 1    
    46   22   90 1    
    47   23   91 1    
    48   23   92 1    
    49   23   93 1    
    50   24   25 am   BACKBONE|DICT|INTERRES
    51   24   94 1    
    52   25   26 2    
    53   25   27 1    
    54   27   28 1    
    55   27   29 1    
    56   27   95 1    
    57   28   96 1    
    58   28   97 1    
    59   28   98 1    
    60   29   30 am   BACKBONE|DICT|INTERRES
    61   29   99 1    
    62   30   31 2    
    63   30   32 1    
    64   32   33 1    
    65   32   34 1    
    66   32  100 1    
    67   33  101 1    
    68   33  102 1    
    69   33  103 1    
    70   34   35 am   BACKBONE|DICT|INTERRES
    71   34  104 1    
    72   35   36 2    
    73   37   38 2    
    74   37   39 am   BACKBONE|DICT|INTERRES
    75   39   40 1    
    76   39  105 1    
    77   40   41 1    
    78   40   42 1    
    79   40  106 1    
    80   41  107 1    
    81   41  108 1    
    82   41  109 1    
    83   42   43 2    
    84   42   44 am   BACKBONE|DICT|INTERRES
    85   44   45 1    
    86   44  110 1    
    87   45   46 1    
    88   45   47 1    
    89   45  111 1    
    90   46  112 1    
    91   46  113 1    
    92   46  114 1    
    93   47   48 2    
    94   47   49 am   BACKBONE|DICT|INTERRES
    95   49   50 1    
    96   49  115 1    
    97   50   51 1    
    98   50   52 1    
    99   50  116 1    
   100   51  117 1    
   101   51  118 1    
   102   51  119 1    
   103   52   53 2    
   104   52   54 am   BACKBONE|DICT|INTERRES
   105   54   55 1    
   106   54  120 1    
   107   55   56 1    
   108   55   57 1    
   109   55  121 1    
   110   56  122 1    
   111   56  123 1    
   112   56  124 1    
   113   57   58 2    
   114   57   59 am   BACKBONE|DICT|INTERRES
   115   59   60 1    
   116   59  125 1    
   117   60   61 1    
   118   60   62 1    
   119   60  126 1    
   120   61  127 1    
   121   61  128 1    
   122   61  129 1    
   123   62   63 2    
   124   62   64 am   BACKBONE|DICT|INTERRES
   125   64   65 1    
   126   64  130 1    
   127   65   66 1    
   128   65   69 1    
   129   65  131 1    
   130   66   67 am   BACKBONE|DICT|INTERRES
   131   66   68 2    
   132   67  132 1    
   133   67  133 1    
   134   69   70 1    
   135   69  134 1    
   136   69  135 1    
   137   70   71 1    
   138   71  136 1    
   139   71  137 1    
@<TRIPOS>SUBSTRUCTURE
     1 UNK         1 GROUP             0       ****    0 ROOT    
