@<TRIPOS>MOLECULE
3R136
137   139    1
SMALL
USER_CHARGES


@<TRIPOS>ATOM
      1 CA         28.6872   19.7169    0.6942 C.3       0 UNK        -0.1979 
      2 C          29.3011   20.5707   -0.4055 C.2       0 UNK         0.4864 
      3 O          29.3237   20.1519   -1.5635 O.2       0 UNK        -0.5359 
      4 N          29.8011   21.7613   -0.0479 N.am      1 UNK        -0.4318 
      5 CA         30.3899   22.7482   -0.9609 C.3       1 UNK         0.0824 
      6 C6         31.1763   23.8489   -0.1995 C.3       12 UNK        -0.0944 
      7 S7         30.2184   24.7622    1.0657 S.3       12 UNK        -0.2672 
      8 C8         30.5325   23.7674    2.5617 C.3       12 UNK         0.0333 
      9 C9         30.1627   24.5333    3.8215 C.ar      12 UNK        -0.0807 
     10 C10        31.1645   24.9862    4.6829 C.ar      12 UNK        -0.0894 
     11 C11        30.8430   25.7329    5.8177 C.ar      12 UNK        -0.0804 
     12 C12        29.5032   26.0177    6.0966 C.ar      12 UNK        -0.0824 
     13 C13        28.4853   25.5549    5.2540 C.ar      12 UNK        -0.0762 
     14 C14        28.8236   24.7972    4.1255 C.ar      12 UNK        -0.0782 
     15 C15        27.0304   25.8849    5.5860 C.3       12 UNK         0.0230 
     16 S16        25.9972   26.3258    4.1433 S.3       12 UNK        -0.2608 
     17 C17        26.9576   27.6664    3.3594 C.3       12 UNK        -0.0989 
     18 CA         27.2480   27.3451    1.8666 C.3       5 UNK         0.0716 
     19 N          26.0423   27.3083    1.0265 N.am      5 UNK        -0.4135 
     20 C          25.2223   28.3385    0.7524 C.2       4 UNK         0.5031 
     21 O          25.3572   29.4656    1.2300 O.2       4 UNK        -0.5229 
     22 CA         24.0632   28.1101   -0.2405 C.3       4 UNK         0.0329 
     23 CB         24.2438   28.9943   -1.4873 C.3       4 UNK        -0.2001 
     24 N          23.9234   26.7217   -0.6774 N.am      4 UNK        -0.4303 
     25 C          23.3226   25.7425    0.0122 C.2       3 UNK         0.5044 
     26 O          22.7330   25.9141    1.0789 O.2       3 UNK        -0.5152 
     27 CA         23.4271   24.3227   -0.5815 C.3       3 UNK         0.0319 
     28 CB         22.1551   23.9744   -1.3713 C.3       3 UNK        -0.2001 
     29 N          24.6030   24.1298   -1.4435 N.am      3 UNK        -0.4354 
     30 C          25.8709   24.2256   -1.0218 C.2       2 UNK         0.4964 
     31 O          26.1882   24.4689    0.1462 O.2       2 UNK        -0.5047 
     32 CA         26.9663   24.1225   -2.0855 C.3       2 UNK         0.0288 
     33 CB         27.1713   25.4951   -2.7585 C.3       2 UNK        -0.2113 
     34 N          28.1743   23.6806   -1.3989 N.am      2 UNK        -0.4145 
     35 C          29.3462   23.3294   -1.9386 C.2       1 UNK         0.5006 
     36 O          29.6069   23.4040   -3.1407 O.2       1 UNK        -0.5103 
     37 C          28.3114   28.2719    1.2440 C.2       5 UNK         0.5055 
     38 O          28.6925   29.2770    1.8433 O.2       5 UNK        -0.5220 
     39 N          28.7647   27.9197    0.0315 N.am      6 UNK        -0.4450 
     40 CA         29.7147   28.6931   -0.7801 C.3       6 UNK         0.0367 
     41 CB         29.9409   27.9737   -2.1200 C.3       6 UNK        -0.1929 
     42 C          31.0644   28.9834   -0.0965 C.2       6 UNK         0.5070 
     43 O          31.6758   30.0144   -0.3778 O.2       6 UNK        -0.5237 
     44 N          31.4950   28.0892    0.8020 N.am      7 UNK        -0.4739 
     45 CA         32.7200   28.2269    1.5904 C.3       7 UNK         0.0276 
     46 CB         33.1377   26.8427    2.1053 C.3       7 UNK        -0.1927 
     47 C          32.6155   29.2293    2.7558 C.2       7 UNK         0.5013 
     48 O          33.6466   29.5138    3.3683 O.2       7 UNK        -0.5193 
     49 N          31.4170   29.7653    3.0513 N.am      8 UNK        -0.4253 
     50 CA         31.1566   30.6981    4.1614 C.3       8 UNK         0.0242 
     51 CB         29.6611   31.0422    4.2249 C.3       8 UNK        -0.2000 
     52 C          32.0004   31.9847    4.1441 C.2       8 UNK         0.4948 
     53 O          32.2245   32.5668    5.2051 O.2       8 UNK        -0.5275 
     54 N          32.5019   32.3776    2.9649 N.am      9 UNK        -0.4246 
     55 CA         33.4900   33.4455    2.7941 C.3       9 UNK         0.0261 
     56 CB         33.6901   33.7080    1.2926 C.3       9 UNK        -0.1959 
     57 C          34.8440   33.1536    3.4751 C.2       9 UNK         0.5033 
     58 O          35.5573   34.1028    3.8043 O.2       9 UNK        -0.5390 
     59 N          35.1731   31.8689    3.6741 N.am      10 UNK        -0.4215 
     60 CA         36.3711   31.4059    4.3691 C.3       10 UNK         0.0240 
     61 CB         37.0395   30.2840    3.5550 C.3       10 UNK        -0.1982 
     62 C          36.0335   30.9263    5.7882 C.2       10 UNK         0.4970 
     63 O          36.6780   31.3804    6.7346 O.2       10 UNK        -0.4916 
     64 N          35.0586   30.0131    5.9199 N.am      11 UNK        -0.4279 
     65 CA         34.6970   29.3881    7.2065 C.3       11 UNK         0.1003 
     66 C          33.7949   30.2429    8.1432 C.2       11 UNK         0.5709 
     67 N          33.2127   31.3492    7.6988 N.am      11 UNK        -0.7358 
     68 O          33.6386   29.9043    9.3143 O.2       11 UNK        -0.4999 
     69 C69        34.1808   27.9335    7.0362 C.3       12 UNK        -0.0954 
     70 S70        32.6398   27.7915    6.0770 S.3       12 UNK        -0.2268 
     71 C71        31.9529   26.2410    6.7240 C.3       12 UNK         0.0203 
     72 H72        29.2116   18.7643    0.7662 H         1 UNK         0.0888 
     73 H73        28.7367   20.2052    1.6673 H         1 UNK         0.0888 
     74 H74        27.6403   19.5136    0.4704 H         1 UNK         0.0888 
     75 H75        29.7526   22.0453    0.9183 H         1 UNK         0.3017 
     76 H76        31.1144   22.2111   -1.5773 H         1 UNK         0.0873 
     77 H77        32.0523   23.4053    0.2759 H         1 UNK         0.0745 
     78 H78        31.5786   24.5779   -0.9057 H         1 UNK         0.0745 
     79 H79        29.9545   22.8442    2.5249 H         1 UNK         0.0705 
     80 H80        31.5838   23.4765    2.5918 H         1 UNK         0.0705 
     81 H81        32.2024   24.7767    4.4623 H         1 UNK         0.1334 
     82 H82        29.2554   26.6046    6.9706 H         1 UNK         0.1417 
     83 H83        28.0469   24.4349    3.4657 H         1 UNK         0.1562 
     84 H84        26.9821   26.7111    6.2973 H         1 UNK         0.0748 
     85 H85        26.5835   25.0241    6.0846 H         1 UNK         0.0748 
     86 H86        27.8906   27.8081    3.9074 H         1 UNK         0.0940 
     87 H87        26.4123   28.6050    3.4660 H         1 UNK         0.0940 
     88 H88        27.6744   26.3419    1.8257 H         1 UNK         0.0703 
     89 H89        25.8385   26.4014    0.6213 H         1 UNK         0.3081 
     90 H90        23.1425   28.4133    0.2626 H         1 UNK         0.0719 
     91 H91        25.1602   28.7508   -2.0267 H         1 UNK         0.0809 
     92 H92        23.4070   28.8842   -2.1774 H         1 UNK         0.0809 
     93 H93        24.2974   30.0496   -1.2158 H         1 UNK         0.0809 
     94 H94        24.3587   26.4799   -1.5551 H         1 UNK         0.2990 
     95 H95        23.5115   23.6270    0.2562 H         1 UNK         0.0690 
     96 H96        22.1759   22.9429   -1.7236 H         1 UNK         0.0788 
     97 H97        22.0260   24.6242   -2.2379 H         1 UNK         0.0788 
     98 H98        21.2666   24.0831   -0.7475 H         1 UNK         0.0788 
     99 H99        24.4228   23.9395   -2.4196 H         1 UNK         0.2993 
    100 H100       26.6888   23.3714   -2.8278 H         1 UNK         0.0949 
    101 H101       26.2733   25.8060   -3.2936 H         1 UNK         0.0767 
    102 H102       27.3975   26.2702   -2.0273 H         1 UNK         0.0767 
    103 H103       27.9810   25.4758   -3.4875 H         1 UNK         0.0767 
    104 H104       28.0573   23.6028   -0.3953 H         1 UNK         0.3013 
    105 H105       28.4195   27.0637   -0.3755 H         1 UNK         0.3121 
    106 H106       29.2507   29.6599   -0.9860 H         1 UNK         0.0774 
    107 H107       30.3000   26.9535   -1.9769 H         1 UNK         0.0815 
    108 H108       30.6818   28.4975   -2.7260 H         1 UNK         0.0815 
    109 H109       29.0246   27.9324   -2.7083 H         1 UNK         0.0815 
    110 H110       30.9330   27.2658    0.9721 H         1 UNK         0.2987 
    111 H111       33.5122   28.5927    0.9334 H         1 UNK         0.0949 
    112 H112       32.3731   26.4238    2.7552 H         1 UNK         0.0806 
    113 H113       33.3030   26.1435    1.2854 H         1 UNK         0.0806 
    114 H114       34.0631   26.8958    2.6808 H         1 UNK         0.0806 
    115 H115       30.6094   29.4931    2.4989 H         1 UNK         0.3010 
    116 H116       31.4122   30.1774    5.0844 H         1 UNK         0.0829 
    117 H117       29.0570   30.1499    4.3888 H         1 UNK         0.0813 
    118 H118       29.4498   31.7272    5.0472 H         1 UNK         0.0813 
    119 H119       29.3180   31.5184    3.3057 H         1 UNK         0.0813 
    120 H120       32.2586   31.8425    2.1431 H         1 UNK         0.3038 
    121 H121       33.0838   34.3504    3.2510 H         1 UNK         0.0769 
    122 H122       34.0725   32.8266    0.7760 H         1 UNK         0.0811 
    123 H123       34.4038   34.5169    1.1295 H         1 UNK         0.0811 
    124 H124       32.7563   34.0008    0.8122 H         1 UNK         0.0811 
    125 H125       34.5113   31.1428    3.4075 H         1 UNK         0.3204 
    126 H126       37.0923   32.2212    4.4583 H         1 UNK         0.0748 
    127 H127       37.9377   29.9208    4.0561 H         1 UNK         0.0771 
    128 H128       36.3775   29.4292    3.4117 H         1 UNK         0.0771 
    129 H129       37.3404   30.6396    2.5694 H         1 UNK         0.0771 
    130 H130       34.5478   29.6945    5.1017 H         1 UNK         0.2980 
    131 H131       35.6283   29.2854    7.7671 H         1 UNK         0.0545 
    132 H132       32.6442   31.8852    8.3340 H         1 UNK         0.3459 
    133 H133       33.2766   31.6378    6.7311 H         1 UNK         0.3459 
    134 H134       34.9406   27.3327    6.5342 H         1 UNK         0.0616 
    135 H135       34.0359   27.4693    8.0135 H         1 UNK         0.0616 
    136 H136       32.7437   25.4923    6.7937 H         1 UNK         0.0634 
    137 H137       31.5832   26.4023    7.7378 H         1 UNK         0.0634 
@<TRIPOS>BOND
     1    1    2 1    
     2    1   72 1    
     3    1   73 1    
     4    1   74 1    
     5    2    3 2    
     6    2    4 am   BACKBONE|DICT|INTERRES
     7    4    5 1    
     8    4   75 1    
     9    5    6 1    
    10    5   35 1    
    11    5   76 1    
    12    6    7 1    
    13    6   77 1    
    14    6   78 1    
    15    7    8 1    
    16    8    9 1    
    17    8   79 1    
    18    8   80 1    
    19    9   10 ar   
    20    9   14 ar   
    21   10   11 ar   
    22   10   81 1    
    23   11   12 ar   
    24   11   71 1    
    25   12   13 ar   
    26   12   82 1    
    27   13   14 ar   
    28   13   15 1    
    29   14   83 1    
    30   15   16 1    
    31   15   84 1    
    32   15   85 1    
    33   16   17 1    
    34   17   18 1    
    35   17   86 1    
    36   17   87 1    
    37   18   19 1    
    38   18   37 1    
    39   18   88 1    
    40   19   20 am   BACKBONE|DICT|INTERRES
    41   19   89 1    
    42   20   21 2    
    43   20   22 1    
    44   22   23 1    
    45   22   24 1    
    46   22   90 1    
    47   23   91 1    
    48   23   92 1    
    49   23   93 1    
    50   24   25 am   BACKBONE|DICT|INTERRES
    51   24   94 1    
    52   25   26 2    
    53   25   27 1    
    54   27   28 1    
    55   27   29 1    
    56   27   95 1    
    57   28   96 1    
    58   28   97 1    
    59   28   98 1    
    60   29   30 am   BACKBONE|DICT|INTERRES
    61   29   99 1    
    62   30   31 2    
    63   30   32 1    
    64   32   33 1    
    65   32   34 1    
    66   32  100 1    
    67   33  101 1    
    68   33  102 1    
    69   33  103 1    
    70   34   35 am   BACKBONE|DICT|INTERRES
    71   34  104 1    
    72   35   36 2    
    73   37   38 2    
    74   37   39 am   BACKBONE|DICT|INTERRES
    75   39   40 1    
    76   39  105 1    
    77   40   41 1    
    78   40   42 1    
    79   40  106 1    
    80   41  107 1    
    81   41  108 1    
    82   41  109 1    
    83   42   43 2    
    84   42   44 am   BACKBONE|DICT|INTERRES
    85   44   45 1    
    86   44  110 1    
    87   45   46 1    
    88   45   47 1    
    89   45  111 1    
    90   46  112 1    
    91   46  113 1    
    92   46  114 1    
    93   47   48 2    
    94   47   49 am   BACKBONE|DICT|INTERRES
    95   49   50 1    
    96   49  115 1    
    97   50   51 1    
    98   50   52 1    
    99   50  116 1    
   100   51  117 1    
   101   51  118 1    
   102   51  119 1    
   103   52   53 2    
   104   52   54 am   BACKBONE|DICT|INTERRES
   105   54   55 1    
   106   54  120 1    
   107   55   56 1    
   108   55   57 1    
   109   55  121 1    
   110   56  122 1    
   111   56  123 1    
   112   56  124 1    
   113   57   58 2    
   114   57   59 am   BACKBONE|DICT|INTERRES
   115   59   60 1    
   116   59  125 1    
   117   60   61 1    
   118   60   62 1    
   119   60  126 1    
   120   61  127 1    
   121   61  128 1    
   122   61  129 1    
   123   62   63 2    
   124   62   64 am   BACKBONE|DICT|INTERRES
   125   64   65 1    
   126   64  130 1    
   127   65   66 1    
   128   65   69 1    
   129   65  131 1    
   130   66   67 am   BACKBONE|DICT|INTERRES
   131   66   68 2    
   132   67  132 1    
   133   67  133 1    
   134   69   70 1    
   135   69  134 1    
   136   69  135 1    
   137   70   71 1    
   138   71  136 1    
   139   71  137 1    
@<TRIPOS>SUBSTRUCTURE
     1 UNK         1 GROUP             0       ****    0 ROOT    
