@<TRIPOS>MOLECULE
3R136
137   139    1
SMALL
USER_CHARGES


@<TRIPOS>ATOM
      1 CA         30.5241   23.2519   -2.4296 C.3       0 UNK        -0.1979 
      2 C          29.8825   23.0722   -1.0631 C.2       0 UNK         0.4864 
      3 O          29.2227   23.9919   -0.5740 O.2       0 UNK        -0.5359 
      4 N          30.0675   21.9009   -0.4387 N.am      1 UNK        -0.4318 
      5 CA         29.5385   21.5830    0.8912 C.3       1 UNK         0.0824 
      6 C6         30.0633   20.2366    1.4573 C.3       12 UNK        -0.0944 
      7 S7         31.8812   20.0560    1.3916 S.3       12 UNK        -0.2672 
      8 C8         32.4170   20.8031    2.9683 C.3       12 UNK         0.0333 
      9 C9         32.1805   22.3060    2.9790 C.ar      12 UNK        -0.0807 
     10 C10        32.8817   23.1289    2.0910 C.ar      12 UNK        -0.0894 
     11 C11        32.6075   24.4969    2.0130 C.ar      12 UNK        -0.0804 
     12 C12        31.6144   25.0333    2.8404 C.ar      12 UNK        -0.0824 
     13 C13        30.9425   24.2338    3.7684 C.ar      12 UNK        -0.0762 
     14 C14        31.2312   22.8685    3.8383 C.ar      12 UNK        -0.0782 
     15 C15        29.8907   24.8523    4.6735 C.3       12 UNK         0.0230 
     16 S16        28.2940   24.9378    3.8131 S.3       12 UNK        -0.2608 
     17 C17        27.6852   26.5864    4.3096 C.3       12 UNK        -0.0989 
     18 CA         28.3067   27.7524    3.4944 C.3       5 UNK         0.0716 
     19 N          28.3484   27.4548    2.0576 N.am      5 UNK        -0.4135 
     20 C          28.9037   28.2055    1.0978 C.2       4 UNK         0.5031 
     21 O          29.3697   29.3266    1.2934 O.2       4 UNK        -0.5229 
     22 CA         28.9316   27.6193   -0.3244 C.3       4 UNK         0.0329 
     23 CB         30.3559   27.1729   -0.6854 C.3       4 UNK        -0.2001 
     24 N          28.0214   26.4858   -0.5168 N.am      4 UNK        -0.4303 
     25 C          26.6879   26.5781   -0.6114 C.2       3 UNK         0.5044 
     26 O          26.0683   27.6363   -0.5007 O.2       3 UNK        -0.5152 
     27 CA         25.9179   25.2706   -0.8385 C.3       3 UNK         0.0319 
     28 CB         26.1653   24.7197   -2.2537 C.3       3 UNK        -0.2001 
     29 N          26.2971   24.2643    0.1571 N.am      3 UNK        -0.4354 
     30 C          25.4449   23.6708    1.0074 C.2       2 UNK         0.4964 
     31 O          24.2340   23.8980    1.0181 O.2       2 UNK        -0.5047 
     32 CA         26.0147   22.6833    2.0493 C.3       2 UNK         0.0288 
     33 CB         25.1515   21.4103    2.1911 C.3       2 UNK        -0.2113 
     34 N          27.4366   22.3595    1.8699 N.am      2 UNK        -0.4145 
     35 C          27.9975   21.6234    0.8997 C.2       1 UNK         0.5006 
     36 O          27.3694   21.0200    0.0264 O.2       1 UNK        -0.5103 
     37 C          27.6124   29.0867    3.8517 C.2       5 UNK         0.5055 
     38 O          27.8675   29.6282    4.9277 O.2       5 UNK        -0.5220 
     39 N          26.7425   29.5828    2.9603 N.am      6 UNK        -0.4450 
     40 CA         26.0266   30.8518    3.0972 C.3       6 UNK         0.0367 
     41 CB         24.7672   30.8007    2.2155 C.3       6 UNK        -0.1929 
     42 C          26.8752   32.0916    2.7491 C.2       6 UNK         0.5070 
     43 O          26.4458   33.2037    3.0609 O.2       6 UNK        -0.5237 
     44 N          28.0296   31.9103    2.0904 N.am      7 UNK        -0.4739 
     45 CA         28.9370   32.9958    1.7039 C.3       7 UNK         0.0276 
     46 CB         29.9052   32.4748    0.6277 C.3       7 UNK        -0.1927 
     47 C          29.7248   33.5556    2.9019 C.2       7 UNK         0.5013 
     48 O          29.8311   32.8962    3.9380 O.2       7 UNK        -0.5193 
     49 N          30.3063   34.7513    2.7181 N.am      8 UNK        -0.4253 
     50 CA         31.2168   35.3873    3.6797 C.3       8 UNK         0.0242 
     51 CB         31.5129   36.8307    3.2412 C.3       8 UNK        -0.2000 
     52 C          32.5219   34.5921    3.8641 C.2       8 UNK         0.4948 
     53 O          32.9945   34.4453    4.9921 O.2       8 UNK        -0.5275 
     54 N          33.0432   34.0393    2.7601 N.am      9 UNK        -0.4246 
     55 CA         34.0782   33.0072    2.7515 C.3       9 UNK         0.0261 
     56 CB         34.8777   33.1037    1.4388 C.3       9 UNK        -0.1959 
     57 C          33.3846   31.6460    2.9241 C.2       9 UNK         0.5033 
     58 O          33.1654   30.9392    1.9406 O.2       9 UNK        -0.5390 
     59 N          32.9812   31.3530    4.1669 N.am      10 UNK        -0.4215 
     60 CA         32.0758   30.2577    4.5269 C.3       10 UNK         0.0240 
     61 CB         31.6004   30.4599    5.9753 C.3       10 UNK        -0.1982 
     62 C          32.6370   28.8376    4.3413 C.2       10 UNK         0.4970 
     63 O          31.8392   27.9049    4.3533 O.2       10 UNK        -0.4916 
     64 N          33.9652   28.6983    4.2150 N.am      11 UNK        -0.4279 
     65 CA         34.7681   27.4861    3.9319 C.3       11 UNK         0.1003 
     66 C          34.5278   26.1834    4.7599 C.2       11 UNK         0.5709 
     67 N          33.5337   26.1039    5.6307 N.am      11 UNK        -0.7358 
     68 O          35.3120   25.2428    4.6565 O.2       11 UNK        -0.4999 
     69 C69        34.9781   27.2216    2.4094 C.3       12 UNK        -0.0954 
     70 S70        33.4728   27.1237    1.3797 S.3       12 UNK        -0.2268 
     71 C71        33.3509   25.3444    0.9807 C.3       12 UNK         0.0203 
     72 H72        31.0857   22.3695   -2.7352 H         1 UNK         0.0888 
     73 H73        29.7579   23.4458   -3.1796 H         1 UNK         0.0888 
     74 H74        31.2069   24.1008   -2.4111 H         1 UNK         0.0888 
     75 H75        30.6085   21.1712   -0.8791 H         1 UNK         0.3017 
     76 H76        29.8865   22.3838    1.5425 H         1 UNK         0.0873 
     77 H77        29.7349   20.1042    2.4899 H         1 UNK         0.0745 
     78 H78        29.6363   19.4021    0.8974 H         1 UNK         0.0745 
     79 H79        33.4812   20.6088    3.1086 H         1 UNK         0.0705 
     80 H80        31.9022   20.3141    3.7968 H         1 UNK         0.0705 
     81 H81        33.6163   22.6906    1.4292 H         1 UNK         0.1334 
     82 H82        31.3530   26.0782    2.7659 H         1 UNK         0.1417 
     83 H83        30.6919   22.2411    4.5350 H         1 UNK         0.1562 
     84 H84        30.2140   25.8481    4.9788 H         1 UNK         0.0748 
     85 H85        29.7776   24.2726    5.5908 H         1 UNK         0.0748 
     86 H86        27.8663   26.7263    5.3774 H         1 UNK         0.0940 
     87 H87        26.5999   26.5754    4.1891 H         1 UNK         0.0940 
     88 H88        29.3451   27.8607    3.8065 H         1 UNK         0.0703 
     89 H89        28.0098   26.5404    1.7980 H         1 UNK         0.3081 
     90 H90        28.6375   28.4162   -1.0106 H         1 UNK         0.0719 
     91 H91        30.6917   26.3634   -0.0367 H         1 UNK         0.0809 
     92 H92        30.4160   26.8237   -1.7161 H         1 UNK         0.0809 
     93 H93        31.0654   27.9947   -0.5770 H         1 UNK         0.0809 
     94 H94        28.4619   25.5689   -0.6043 H         1 UNK         0.2990 
     95 H95        24.8556   25.5102   -0.7580 H         1 UNK         0.0690 
     96 H96        25.5602   23.8324   -2.4401 H         1 UNK         0.0788 
     97 H97        27.2094   24.4480   -2.4117 H         1 UNK         0.0788 
     98 H98        25.9008   25.4579   -3.0119 H         1 UNK         0.0788 
     99 H99        27.2806   24.0192    0.1924 H         1 UNK         0.2993 
    100 H100       25.9554   23.2105    3.0025 H         1 UNK         0.0949 
    101 H101       25.0603   20.8711    1.2480 H         1 UNK         0.0767 
    102 H102       25.5686   20.7275    2.9314 H         1 UNK         0.0767 
    103 H103       24.1407   21.6589    2.5166 H         1 UNK         0.0767 
    104 H104       28.0523   22.8342    2.5189 H         1 UNK         0.3013 
    105 H105       26.6002   29.0732    2.0994 H         1 UNK         0.3121 
    106 H106       25.7089   30.9606    4.1366 H         1 UNK         0.0774 
    107 H107       24.1834   31.7172    2.3129 H         1 UNK         0.0815 
    108 H108       25.0179   30.6847    1.1602 H         1 UNK         0.0815 
    109 H109       24.1163   29.9736    2.4995 H         1 UNK         0.0815 
    110 H110       28.3559   30.9661    1.9072 H         1 UNK         0.2987 
    111 H111       28.3405   33.8046    1.2758 H         1 UNK         0.0949 
    112 H112       30.5270   33.2772    0.2298 H         1 UNK         0.0806 
    113 H113       30.5762   31.7126    1.0272 H         1 UNK         0.0806 
    114 H114       29.3678   32.0366   -0.2135 H         1 UNK         0.0806 
    115 H115       30.1566   35.2373    1.8452 H         1 UNK         0.3010 
    116 H116       30.7116   35.4204    4.6475 H         1 UNK         0.0829 
    117 H117       30.5998   37.4237    3.1858 H         1 UNK         0.0813 
    118 H118       32.1747   37.3252    3.9538 H         1 UNK         0.0813 
    119 H119       31.9987   36.8689    2.2655 H         1 UNK         0.0813 
    120 H120       32.5672   34.1968    1.8841 H         1 UNK         0.3038 
    121 H121       34.7704   33.1571    3.5832 H         1 UNK         0.0769 
    122 H122       35.3837   34.0655    1.3543 H         1 UNK         0.0811 
    123 H123       34.2403   32.9831    0.5619 H         1 UNK         0.0811 
    124 H124       35.6439   32.3287    1.3934 H         1 UNK         0.0811 
    125 H125       33.1715   32.0324    4.8924 H         1 UNK         0.3204 
    126 H126       31.2023   30.3338    3.8743 H         1 UNK         0.0748 
    127 H127       30.8785   29.6930    6.2602 H         1 UNK         0.0771 
    128 H128       32.4280   30.4126    6.6840 H         1 UNK         0.0771 
    129 H129       31.1041   31.4234    6.0965 H         1 UNK         0.0771 
    130 H130       34.5049   29.5484    4.2673 H         1 UNK         0.2980 
    131 H131       35.7517   27.7867    4.2950 H         1 UNK         0.0545 
    132 H132       33.4060   25.2615    6.1663 H         1 UNK         0.3459 
    133 H133       32.8120   26.8132    5.5970 H         1 UNK         0.3459 
    134 H134       35.5919   26.3346    2.2457 H         1 UNK         0.0616 
    135 H135       35.5657   28.0437    1.9986 H         1 UNK         0.0616 
    136 H136       34.3532   24.9470    0.8151 H         1 UNK         0.0634 
    137 H137       32.8269   25.2460    0.0296 H         1 UNK         0.0634 
@<TRIPOS>BOND
     1    1    2 1    
     2    1   72 1    
     3    1   73 1    
     4    1   74 1    
     5    2    3 2    
     6    2    4 am   BACKBONE|DICT|INTERRES
     7    4    5 1    
     8    4   75 1    
     9    5    6 1    
    10    5   35 1    
    11    5   76 1    
    12    6    7 1    
    13    6   77 1    
    14    6   78 1    
    15    7    8 1    
    16    8    9 1    
    17    8   79 1    
    18    8   80 1    
    19    9   10 ar   
    20    9   14 ar   
    21   10   11 ar   
    22   10   81 1    
    23   11   12 ar   
    24   11   71 1    
    25   12   13 ar   
    26   12   82 1    
    27   13   14 ar   
    28   13   15 1    
    29   14   83 1    
    30   15   16 1    
    31   15   84 1    
    32   15   85 1    
    33   16   17 1    
    34   17   18 1    
    35   17   86 1    
    36   17   87 1    
    37   18   19 1    
    38   18   37 1    
    39   18   88 1    
    40   19   20 am   BACKBONE|DICT|INTERRES
    41   19   89 1    
    42   20   21 2    
    43   20   22 1    
    44   22   23 1    
    45   22   24 1    
    46   22   90 1    
    47   23   91 1    
    48   23   92 1    
    49   23   93 1    
    50   24   25 am   BACKBONE|DICT|INTERRES
    51   24   94 1    
    52   25   26 2    
    53   25   27 1    
    54   27   28 1    
    55   27   29 1    
    56   27   95 1    
    57   28   96 1    
    58   28   97 1    
    59   28   98 1    
    60   29   30 am   BACKBONE|DICT|INTERRES
    61   29   99 1    
    62   30   31 2    
    63   30   32 1    
    64   32   33 1    
    65   32   34 1    
    66   32  100 1    
    67   33  101 1    
    68   33  102 1    
    69   33  103 1    
    70   34   35 am   BACKBONE|DICT|INTERRES
    71   34  104 1    
    72   35   36 2    
    73   37   38 2    
    74   37   39 am   BACKBONE|DICT|INTERRES
    75   39   40 1    
    76   39  105 1    
    77   40   41 1    
    78   40   42 1    
    79   40  106 1    
    80   41  107 1    
    81   41  108 1    
    82   41  109 1    
    83   42   43 2    
    84   42   44 am   BACKBONE|DICT|INTERRES
    85   44   45 1    
    86   44  110 1    
    87   45   46 1    
    88   45   47 1    
    89   45  111 1    
    90   46  112 1    
    91   46  113 1    
    92   46  114 1    
    93   47   48 2    
    94   47   49 am   BACKBONE|DICT|INTERRES
    95   49   50 1    
    96   49  115 1    
    97   50   51 1    
    98   50   52 1    
    99   50  116 1    
   100   51  117 1    
   101   51  118 1    
   102   51  119 1    
   103   52   53 2    
   104   52   54 am   BACKBONE|DICT|INTERRES
   105   54   55 1    
   106   54  120 1    
   107   55   56 1    
   108   55   57 1    
   109   55  121 1    
   110   56  122 1    
   111   56  123 1    
   112   56  124 1    
   113   57   58 2    
   114   57   59 am   BACKBONE|DICT|INTERRES
   115   59   60 1    
   116   59  125 1    
   117   60   61 1    
   118   60   62 1    
   119   60  126 1    
   120   61  127 1    
   121   61  128 1    
   122   61  129 1    
   123   62   63 2    
   124   62   64 am   BACKBONE|DICT|INTERRES
   125   64   65 1    
   126   64  130 1    
   127   65   66 1    
   128   65   69 1    
   129   65  131 1    
   130   66   67 am   BACKBONE|DICT|INTERRES
   131   66   68 2    
   132   67  132 1    
   133   67  133 1    
   134   69   70 1    
   135   69  134 1    
   136   69  135 1    
   137   70   71 1    
   138   71  136 1    
   139   71  137 1    
@<TRIPOS>SUBSTRUCTURE
     1 UNK         1 GROUP             0       ****    0 ROOT    
