@<TRIPOS>MOLECULE
3R136
137   139    1
SMALL
USER_CHARGES


@<TRIPOS>ATOM
      1 CA         27.8717   23.3461   -4.8152 C.3       0 UNK        -0.1979 
      2 C          27.8287   23.8368   -3.3756 C.2       0 UNK         0.4864 
      3 O          27.6310   25.0295   -3.1425 O.2       0 UNK        -0.5359 
      4 N          28.0210   22.9287   -2.4104 N.am      1 UNK        -0.4318 
      5 CA         27.9535   23.2129   -0.9764 C.3       1 UNK         0.0824 
      6 C6         28.6458   22.0947   -0.1580 C.3       12 UNK        -0.0944 
      7 S7         28.7888   22.4775    1.6222 S.3       12 UNK        -0.2672 
      8 C8         30.3704   21.6932    2.0582 C.3       12 UNK         0.0333 
      9 C9         31.5050   22.7051    2.1072 C.ar      12 UNK        -0.0807 
     10 C10        31.8836   23.2678    3.3298 C.ar      12 UNK        -0.0894 
     11 C11        32.9468   24.1724    3.3970 C.ar      12 UNK        -0.0804 
     12 C12        33.6227   24.5281    2.2270 C.ar      12 UNK        -0.0824 
     13 C13        33.2477   23.9791    0.9971 C.ar      12 UNK        -0.0762 
     14 C14        32.1929   23.0614    0.9435 C.ar      12 UNK        -0.0782 
     15 C15        34.0017   24.3660   -0.2660 C.3       12 UNK         0.0230 
     16 S16        33.4662   25.9842   -0.9055 S.3       12 UNK        -0.2608 
     17 C17        31.8273   25.5894   -1.6142 C.3       12 UNK        -0.0989 
     18 CA         30.6533   26.3789   -0.9834 C.3       5 UNK         0.0716 
     19 N          30.5759   26.2074    0.4747 N.am      5 UNK        -0.4135 
     20 C          29.4401   26.3106    1.1745 C.2       4 UNK         0.5031 
     21 O          28.3239   26.3978    0.6539 O.2       4 UNK        -0.5229 
     22 CA         29.5615   26.3473    2.7035 C.3       4 UNK         0.0329 
     23 CB         29.8742   27.7753    3.1863 C.3       4 UNK        -0.2001 
     24 N          28.2779   25.9276    3.2507 N.am      4 UNK        -0.4303 
     25 C          28.0729   25.0359    4.2233 C.2       3 UNK         0.5044 
     26 O          28.9611   24.6001    4.9557 O.2       3 UNK        -0.5152 
     27 CA         26.6395   24.4861    4.3754 C.3       3 UNK         0.0319 
     28 CB         25.8291   25.2866    5.4142 C.3       3 UNK        -0.2001 
     29 N          25.9268   24.3354    3.0929 N.am      3 UNK        -0.4354 
     30 C          25.4178   25.2866    2.2944 C.2       2 UNK         0.4964 
     31 O          25.3878   26.4839    2.5796 O.2       2 UNK        -0.5047 
     32 CA         25.0048   24.8231    0.8921 C.3       2 UNK         0.0288 
     33 CB         24.2054   25.8828    0.1107 C.3       2 UNK        -0.2113 
     34 N          26.2437   24.5253    0.1808 N.am      2 UNK        -0.4145 
     35 C          26.4887   23.4270   -0.5392 C.2       1 UNK         0.5006 
     36 O          25.6368   22.5798   -0.8210 O.2       1 UNK        -0.5103 
     37 C          30.6724   27.8692   -1.3933 C.2       5 UNK         0.5055 
     38 O          30.3342   28.1872   -2.5349 O.2       5 UNK        -0.5220 
     39 N          31.0685   28.7517   -0.4659 N.am      6 UNK        -0.4450 
     40 CA         31.0434   30.2049   -0.6166 C.3       6 UNK         0.0367 
     41 CB         32.0228   30.8150    0.4014 C.3       6 UNK        -0.1929 
     42 C          29.6244   30.7689   -0.4201 C.2       6 UNK         0.5070 
     43 O          28.7432   30.0828    0.1007 O.2       6 UNK        -0.5237 
     44 N          29.4406   32.0373   -0.8086 N.am      7 UNK        -0.4739 
     45 CA         28.1833   32.7862   -0.6738 C.3       7 UNK         0.0276 
     46 CB         28.2373   34.0097   -1.6052 C.3       7 UNK        -0.1927 
     47 C          27.8506   33.2189    0.7706 C.2       7 UNK         0.5013 
     48 O          26.7580   33.7380    1.0046 O.2       7 UNK        -0.5193 
     49 N          28.7858   33.0153    1.7031 N.am      8 UNK        -0.4253 
     50 CA         28.6619   33.2787    3.1324 C.3       8 UNK         0.0242 
     51 CB         29.3023   34.6417    3.4516 C.3       8 UNK        -0.2000 
     52 C          29.3610   32.1436    3.8907 C.2       8 UNK         0.4948 
     53 O          30.0687   31.3396    3.2760 O.2       8 UNK        -0.5275 
     54 N          29.1840   32.1076    5.2178 N.am      9 UNK        -0.4246 
     55 CA         29.7675   31.1192    6.1338 C.3       9 UNK         0.0261 
     56 CB         28.9946   31.1564    7.4656 C.3       9 UNK        -0.1959 
     57 C          31.2903   31.2935    6.3293 C.2       9 UNK         0.5033 
     58 O          31.7597   31.4709    7.4554 O.2       9 UNK        -0.5390 
     59 N          32.0395   31.2218    5.2224 N.am      10 UNK        -0.4215 
     60 CA         33.5001   31.3377    5.1466 C.3       10 UNK         0.0240 
     61 CB         33.9109   31.4298    3.6676 C.3       10 UNK        -0.1982 
     62 C          34.2616   30.1946    5.8452 C.2       10 UNK         0.4970 
     63 O          35.4536   30.3445    6.1159 O.2       10 UNK        -0.4916 
     64 N          33.5671   29.0839    6.1198 N.am      11 UNK        -0.4279 
     65 CA         34.0667   27.9048    6.8408 C.3       11 UNK         0.1003 
     66 C          34.4396   28.1644    8.3305 C.2       11 UNK         0.5709 
     67 N          33.9744   29.2410    8.9554 N.am      11 UNK        -0.7358 
     68 O          35.1655   27.3727    8.9271 O.2       11 UNK        -0.4999 
     69 C69        33.0710   26.7190    6.7382 C.3       12 UNK        -0.0954 
     70 S70        32.5558   26.3512    5.0271 S.3       12 UNK        -0.2268 
     71 C71        33.3693   24.7566    4.7352 C.3       12 UNK         0.0203 
     72 H72        28.0681   22.2758   -4.8761 H         1 UNK         0.0888 
     73 H73        26.9200   23.5449   -5.3073 H         1 UNK         0.0888 
     74 H74        28.6554   23.8663   -5.3653 H         1 UNK         0.0888 
     75 H75        28.1419   21.9577   -2.6606 H         1 UNK         0.3017 
     76 H76        28.5064   24.1356   -0.8010 H         1 UNK         0.0873 
     77 H77        28.1139   21.1474   -0.2661 H         1 UNK         0.0745 
     78 H78        29.6459   21.9262   -0.5590 H         1 UNK         0.0745 
     79 H79        30.6058   20.8891    1.3595 H         1 UNK         0.0705 
     80 H80        30.2582   21.2158    3.0328 H         1 UNK         0.0705 
     81 H81        31.3504   23.0007    4.2325 H         1 UNK         0.1334 
     82 H82        34.4422   25.2327    2.2737 H         1 UNK         0.1417 
     83 H83        31.9086   22.6211   -0.0020 H         1 UNK         0.1562 
     84 H84        33.8846   23.6062   -1.0405 H         1 UNK         0.0748 
     85 H85        35.0700   24.4120   -0.0490 H         1 UNK         0.0748 
     86 H86        31.6318   24.5217   -1.5139 H         1 UNK         0.0940 
     87 H87        31.8689   25.7662   -2.6910 H         1 UNK         0.0940 
     88 H88        29.7401   25.9747   -1.4235 H         1 UNK         0.0703 
     89 H89        31.4554   26.0735    0.9549 H         1 UNK         0.3081 
     90 H90        30.3496   25.6604    3.0157 H         1 UNK         0.0719 
     91 H91        30.8588   28.0996    2.8486 H         1 UNK         0.0809 
     92 H92        29.8728   27.8329    4.2747 H         1 UNK         0.0809 
     93 H93        29.1470   28.4990    2.8136 H         1 UNK         0.0809 
     94 H94        27.4752   26.2259    2.7063 H         1 UNK         0.2990 
     95 H95        26.7434   23.4711    4.7624 H         1 UNK         0.0690 
     96 H96        24.8228   24.8842    5.5298 H         1 UNK         0.0788 
     97 H97        25.7431   26.3400    5.1468 H         1 UNK         0.0788 
     98 H98        26.3105   25.2443    6.3920 H         1 UNK         0.0788 
     99 H99        25.9489   23.3955    2.7202 H         1 UNK         0.2993 
    100 H100       24.3904   23.9264    1.0009 H         1 UNK         0.0949 
    101 H101       23.2945   26.1565    0.6445 H         1 UNK         0.0767 
    102 H102       24.7846   26.7946   -0.0424 H         1 UNK         0.0767 
    103 H103       23.9097   25.5082   -0.8694 H         1 UNK         0.0767 
    104 H104       27.0062   25.1836    0.3463 H         1 UNK         0.3013 
    105 H105       31.2941   28.4027    0.4518 H         1 UNK         0.3121 
    106 H106       31.3780   30.4613   -1.6242 H         1 UNK         0.0774 
    107 H107       32.0499   31.9028    0.3305 H         1 UNK         0.0815 
    108 H108       31.7471   30.5615    1.4249 H         1 UNK         0.0815 
    109 H109       33.0394   30.4587    0.2337 H         1 UNK         0.0815 
    110 H110       30.2178   32.5377   -1.2171 H         1 UNK         0.2987 
    111 H111       27.3662   32.1414   -1.0054 H         1 UNK         0.0949 
    112 H112       28.3967   33.7137   -2.6423 H         1 UNK         0.0806 
    113 H113       27.3014   34.5693   -1.5726 H         1 UNK         0.0806 
    114 H114       29.0365   34.6965   -1.3233 H         1 UNK         0.0806 
    115 H115       29.6101   32.4865    1.4499 H         1 UNK         0.3010 
    116 H116       27.6091   33.2840    3.4232 H         1 UNK         0.0829 
    117 H117       28.8234   35.4436    2.8893 H         1 UNK         0.0813 
    118 H118       29.2055   34.8895    4.5092 H         1 UNK         0.0813 
    119 H119       30.3658   34.6535    3.2084 H         1 UNK         0.0813 
    120 H120       28.6183   32.8268    5.6455 H         1 UNK         0.3038 
    121 H121       29.6190   30.1287    5.6978 H         1 UNK         0.0769 
    122 H122       29.0889   32.1238    7.9606 H         1 UNK         0.0811 
    123 H123       29.3682   30.3990    8.1563 H         1 UNK         0.0811 
    124 H124       27.9334   30.9568    7.3154 H         1 UNK         0.0811 
    125 H125       31.5347   31.1185    4.3428 H         1 UNK         0.3204 
    126 H126       33.7845   32.2673    5.6437 H         1 UNK         0.0748 
    127 H127       34.9868   31.5802    3.5686 H         1 UNK         0.0771 
    128 H128       33.6579   30.5191    3.1232 H         1 UNK         0.0771 
    129 H129       33.4208   32.2666    3.1690 H         1 UNK         0.0771 
    130 H130       32.6002   29.0446    5.8383 H         1 UNK         0.2980 
    131 H131       34.9908   27.6033    6.3441 H         1 UNK         0.0545 
    132 H132       34.2246   29.3989    9.9186 H         1 UNK         0.3459 
    133 H133       33.3742   29.8960    8.4748 H         1 UNK         0.3459 
    134 H134       33.5011   25.8212    7.1859 H         1 UNK         0.0616 
    135 H135       32.1664   26.9358    7.3096 H         1 UNK         0.0616 
    136 H136       33.1159   24.0660    5.5411 H         1 UNK         0.0634 
    137 H137       34.4517   24.8905    4.7659 H         1 UNK         0.0634 
@<TRIPOS>BOND
     1    1    2 1    
     2    1   72 1    
     3    1   73 1    
     4    1   74 1    
     5    2    3 2    
     6    2    4 am   BACKBONE|DICT|INTERRES
     7    4    5 1    
     8    4   75 1    
     9    5    6 1    
    10    5   35 1    
    11    5   76 1    
    12    6    7 1    
    13    6   77 1    
    14    6   78 1    
    15    7    8 1    
    16    8    9 1    
    17    8   79 1    
    18    8   80 1    
    19    9   10 ar   
    20    9   14 ar   
    21   10   11 ar   
    22   10   81 1    
    23   11   12 ar   
    24   11   71 1    
    25   12   13 ar   
    26   12   82 1    
    27   13   14 ar   
    28   13   15 1    
    29   14   83 1    
    30   15   16 1    
    31   15   84 1    
    32   15   85 1    
    33   16   17 1    
    34   17   18 1    
    35   17   86 1    
    36   17   87 1    
    37   18   19 1    
    38   18   37 1    
    39   18   88 1    
    40   19   20 am   BACKBONE|DICT|INTERRES
    41   19   89 1    
    42   20   21 2    
    43   20   22 1    
    44   22   23 1    
    45   22   24 1    
    46   22   90 1    
    47   23   91 1    
    48   23   92 1    
    49   23   93 1    
    50   24   25 am   BACKBONE|DICT|INTERRES
    51   24   94 1    
    52   25   26 2    
    53   25   27 1    
    54   27   28 1    
    55   27   29 1    
    56   27   95 1    
    57   28   96 1    
    58   28   97 1    
    59   28   98 1    
    60   29   30 am   BACKBONE|DICT|INTERRES
    61   29   99 1    
    62   30   31 2    
    63   30   32 1    
    64   32   33 1    
    65   32   34 1    
    66   32  100 1    
    67   33  101 1    
    68   33  102 1    
    69   33  103 1    
    70   34   35 am   BACKBONE|DICT|INTERRES
    71   34  104 1    
    72   35   36 2    
    73   37   38 2    
    74   37   39 am   BACKBONE|DICT|INTERRES
    75   39   40 1    
    76   39  105 1    
    77   40   41 1    
    78   40   42 1    
    79   40  106 1    
    80   41  107 1    
    81   41  108 1    
    82   41  109 1    
    83   42   43 2    
    84   42   44 am   BACKBONE|DICT|INTERRES
    85   44   45 1    
    86   44  110 1    
    87   45   46 1    
    88   45   47 1    
    89   45  111 1    
    90   46  112 1    
    91   46  113 1    
    92   46  114 1    
    93   47   48 2    
    94   47   49 am   BACKBONE|DICT|INTERRES
    95   49   50 1    
    96   49  115 1    
    97   50   51 1    
    98   50   52 1    
    99   50  116 1    
   100   51  117 1    
   101   51  118 1    
   102   51  119 1    
   103   52   53 2    
   104   52   54 am   BACKBONE|DICT|INTERRES
   105   54   55 1    
   106   54  120 1    
   107   55   56 1    
   108   55   57 1    
   109   55  121 1    
   110   56  122 1    
   111   56  123 1    
   112   56  124 1    
   113   57   58 2    
   114   57   59 am   BACKBONE|DICT|INTERRES
   115   59   60 1    
   116   59  125 1    
   117   60   61 1    
   118   60   62 1    
   119   60  126 1    
   120   61  127 1    
   121   61  128 1    
   122   61  129 1    
   123   62   63 2    
   124   62   64 am   BACKBONE|DICT|INTERRES
   125   64   65 1    
   126   64  130 1    
   127   65   66 1    
   128   65   69 1    
   129   65  131 1    
   130   66   67 am   BACKBONE|DICT|INTERRES
   131   66   68 2    
   132   67  132 1    
   133   67  133 1    
   134   69   70 1    
   135   69  134 1    
   136   69  135 1    
   137   70   71 1    
   138   71  136 1    
   139   71  137 1    
@<TRIPOS>SUBSTRUCTURE
     1 UNK         1 GROUP             0       ****    0 ROOT    
