@<TRIPOS>MOLECULE
3R136
137   139    1
SMALL
USER_CHARGES


@<TRIPOS>ATOM
      1 CA         31.4751   23.5046   -5.5395 C.3       0 UNK        -0.1979 
      2 C          30.5356   23.8593   -4.3961 C.2       0 UNK         0.4864 
      3 O          29.4606   24.4111   -4.6376 O.2       0 UNK        -0.5359 
      4 N          30.9361   23.5546   -3.1546 N.am      1 UNK        -0.4318 
      5 CA         30.1332   23.7597   -1.9454 C.3       1 UNK         0.0824 
      6 C6         31.0255   23.7673   -0.6798 C.3       12 UNK        -0.0944 
      7 S7         30.2883   24.7059    0.7016 S.3       12 UNK        -0.2672 
      8 C8         30.0847   23.4032    1.9577 C.3       12 UNK         0.0333 
      9 C9         29.9806   24.0162    3.3442 C.ar      12 UNK        -0.0807 
     10 C10        31.1436   24.3689    4.0339 C.ar      12 UNK        -0.0894 
     11 C11        31.0685   24.9759    5.2896 C.ar      12 UNK        -0.0804 
     12 C12        29.8152   25.2365    5.8513 C.ar      12 UNK        -0.0824 
     13 C13        28.6409   24.8851    5.1766 C.ar      12 UNK        -0.0762 
     14 C14        28.7335   24.2491    3.9314 C.ar      12 UNK        -0.0782 
     15 C15        27.2931   25.1837    5.8320 C.3       12 UNK         0.0230 
     16 S16        25.9685   25.6789    4.6770 S.3       12 UNK        -0.2608 
     17 C17        26.6493   27.1821    3.8895 C.3       12 UNK        -0.0989 
     18 CA         26.9852   26.9404    2.3927 C.3       5 UNK         0.0716 
     19 N          25.8416   26.4763    1.6004 N.am      5 UNK        -0.4135 
     20 C          24.7080   27.1411    1.3218 C.2       4 UNK         0.5031 
     21 O          24.4799   28.3009    1.6668 O.2       4 UNK        -0.5229 
     22 CA         23.6249   26.3856    0.5224 C.3       4 UNK         0.0329 
     23 CB         23.6822   26.7837   -0.9617 C.3       4 UNK        -0.2001 
     24 N          23.7335   24.9286    0.6287 N.am      4 UNK        -0.4303 
     25 C          23.5166   24.2169    1.7444 C.2       3 UNK         0.5044 
     26 O          23.0119   24.6894    2.7631 O.2       3 UNK        -0.5152 
     27 CA         23.9524   22.7348    1.7407 C.3       3 UNK         0.0319 
     28 CB         22.7222   21.8123    1.7685 C.3       3 UNK        -0.2001 
     29 N          24.8224   22.3313    0.6248 N.am      3 UNK        -0.4354 
     30 C          26.0237   22.8486    0.3303 C.2       2 UNK         0.4964 
     31 O          26.5466   23.7692    0.9659 O.2       2 UNK        -0.5047 
     32 CA         26.7283   22.2868   -0.9128 C.3       2 UNK         0.0288 
     33 CB         25.8210   22.3208   -2.1614 C.3       2 UNK        -0.2113 
     34 N          27.9252   23.0848   -1.1531 N.am      2 UNK        -0.4145 
     35 C          29.0030   22.7125   -1.8473 C.2       1 UNK         0.5006 
     36 O          29.1328   21.6027   -2.3730 O.2       1 UNK        -0.5103 
     37 C          27.6752   28.1398    1.7190 C.2       5 UNK         0.5055 
     38 O          27.5038   29.2851    2.1437 O.2       5 UNK        -0.5220 
     39 N          28.4346   27.8435    0.6553 N.am      6 UNK        -0.4450 
     40 CA         29.1908   28.7955   -0.1616 C.3       6 UNK         0.0367 
     41 CB         29.5341   28.1240   -1.5053 C.3       6 UNK        -0.1929 
     42 C          30.4419   29.3262    0.5691 C.2       6 UNK         0.5070 
     43 O          31.5692   29.0374    0.1634 O.2       6 UNK        -0.5237 
     44 N          30.2140   30.0762    1.6524 N.am      7 UNK        -0.4739 
     45 CA         31.2376   30.7224    2.4727 C.3       7 UNK         0.0276 
     46 CB         30.5770   31.2587    3.7527 C.3       7 UNK        -0.1927 
     47 C          31.9640   31.8547    1.7277 C.2       7 UNK         0.5013 
     48 O          31.3719   32.5088    0.8646 O.2       7 UNK        -0.5193 
     49 N          33.2232   32.0852    2.1082 N.am      8 UNK        -0.4253 
     50 CA         34.1022   33.1109    1.5516 C.3       8 UNK         0.0242 
     51 CB         34.6893   32.6399    0.2052 C.3       8 UNK        -0.2000 
     52 C          35.1778   33.3982    2.6009 C.2       8 UNK         0.4948 
     53 O          36.2848   32.8634    2.5067 O.2       8 UNK        -0.5275 
     54 N          34.7942   34.1514    3.6428 N.am      9 UNK        -0.4246 
     55 CA         35.5146   34.4035    4.9031 C.3       9 UNK         0.0261 
     56 CB         36.8878   35.0682    4.6777 C.3       9 UNK        -0.1959 
     57 C          35.6205   33.1408    5.7772 C.2       9 UNK         0.5033 
     58 O          35.1651   33.1533    6.9222 O.2       9 UNK        -0.5390 
     59 N          36.1487   32.0552    5.1997 N.am      10 UNK        -0.4215 
     60 CA         36.0022   30.6898    5.6979 C.3       10 UNK         0.0240 
     61 CB         36.9232   29.7571    4.8960 C.3       10 UNK        -0.1982 
     62 C          34.5366   30.2426    5.5693 C.2       10 UNK         0.4970 
     63 O          33.8814   30.5975    4.5845 O.2       10 UNK        -0.4916 
     64 N          34.0660   29.4884    6.5692 N.am      11 UNK        -0.4279 
     65 CA         32.6754   29.0257    6.7392 C.3       11 UNK         0.1003 
     66 C          31.6560   30.1489    7.1038 C.2       11 UNK         0.5709 
     67 N          32.0802   31.3773    7.3793 N.am      11 UNK        -0.7358 
     68 O          30.4564   29.8946    7.1775 O.2       11 UNK        -0.4999 
     69 C69        32.1650   28.1220    5.5786 C.3       12 UNK        -0.0954 
     70 S70        33.2541   26.6970    5.2448 S.3       12 UNK        -0.2268 
     71 C71        32.3430   25.3371    6.0412 C.3       12 UNK         0.0203 
     72 H72        32.3928   23.0368   -5.1835 H         1 UNK         0.0888 
     73 H73        30.9862   22.8131   -6.2253 H         1 UNK         0.0888 
     74 H74        31.7458   24.4021   -6.0951 H         1 UNK         0.0888 
     75 H75        31.8124   23.0702   -3.0228 H         1 UNK         0.3017 
     76 H76        29.6675   24.7436   -2.0421 H         1 UNK         0.0873 
     77 H77        31.2877   22.7530   -0.3723 H         1 UNK         0.0745 
     78 H78        31.9746   24.2591   -0.8999 H         1 UNK         0.0745 
     79 H79        29.1992   22.8089    1.7264 H         1 UNK         0.0705 
     80 H80        30.9352   22.7204    1.9314 H         1 UNK         0.0705 
     81 H81        32.1109   24.1849    3.5860 H         1 UNK         0.1334 
     82 H82        29.7545   25.7123    6.8208 H         1 UNK         0.1417 
     83 H83        27.8347   23.9611    3.4026 H         1 UNK         0.1562 
     84 H84        27.4001   25.9716    6.5794 H         1 UNK         0.0748 
     85 H85        26.9671   24.2927    6.3698 H         1 UNK         0.0748 
     86 H86        27.5393   27.5049    4.4333 H         1 UNK         0.0940 
     87 H87        25.9213   27.9881    3.9970 H         1 UNK         0.0940 
     88 H88        27.7098   26.1287    2.3529 H         1 UNK         0.0703 
     89 H89        25.9228   25.5145    1.2824 H         1 UNK         0.3081 
     90 H90        22.6531   26.6829    0.9224 H         1 UNK         0.0719 
     91 H91        24.6302   26.5000   -1.4208 H         1 UNK         0.0809 
     92 H92        22.8786   26.3153   -1.5303 H         1 UNK         0.0809 
     93 H93        23.5735   27.8628   -1.0799 H         1 UNK         0.0809 
     94 H94        24.1212   24.4441   -0.1667 H         1 UNK         0.2990 
     95 H95        24.5179   22.5767    2.6615 H         1 UNK         0.0690 
     96 H96        23.0109   20.7667    1.8780 H         1 UNK         0.0788 
     97 H97        22.1284   21.9054    0.8583 H         1 UNK         0.0788 
     98 H98        22.0697   22.0536    2.6090 H         1 UNK         0.0788 
     99 H99        24.4677   21.5899    0.0376 H         1 UNK         0.2993 
    100 H100       27.0213   21.2576   -0.6941 H         1 UNK         0.0949 
    101 H101       24.9449   21.6828   -2.0420 H         1 UNK         0.0767 
    102 H102       25.4684   23.3307   -2.3752 H         1 UNK         0.0767 
    103 H103       26.3496   21.9628   -3.0453 H         1 UNK         0.0767 
    104 H104       27.9355   23.9628   -0.6489 H         1 UNK         0.3013 
    105 H105       28.5541   26.8700    0.4146 H         1 UNK         0.3121 
    106 H106       28.5497   29.6542   -0.3731 H         1 UNK         0.0774 
    107 H107       28.6351   27.8092   -2.0354 H         1 UNK         0.0815 
    108 H108       30.0690   28.8139   -2.1593 H         1 UNK         0.0815 
    109 H109       30.1692   27.2475   -1.3690 H         1 UNK         0.0815 
    110 H110       29.2463   30.2118    1.9286 H         1 UNK         0.2987 
    111 H111       31.9747   29.9630    2.7398 H         1 UNK         0.0949 
    112 H112       31.3148   31.7198    4.4107 H         1 UNK         0.0806 
    113 H113       30.0963   30.4590    4.3166 H         1 UNK         0.0806 
    114 H114       29.8216   32.0135    3.5306 H         1 UNK         0.0806 
    115 H115       33.6056   31.5390    2.8785 H         1 UNK         0.3010 
    116 H116       33.5363   34.0302    1.3847 H         1 UNK         0.0829 
    117 H117       33.9090   32.5066   -0.5442 H         1 UNK         0.0813 
    118 H118       35.3956   33.3714   -0.1893 H         1 UNK         0.0813 
    119 H119       35.2200   31.6922    0.3054 H         1 UNK         0.0813 
    120 H120       33.8452   34.5005    3.6288 H         1 UNK         0.3038 
    121 H121       34.8995   35.1159    5.4556 H         1 UNK         0.0769 
    122 H122       37.5896   34.4112    4.1638 H         1 UNK         0.0811 
    123 H123       37.3440   35.3419    5.6298 H         1 UNK         0.0811 
    124 H124       36.7930   35.9812    4.0899 H         1 UNK         0.0811 
    125 H125       36.4238   32.1577    4.2249 H         1 UNK         0.3204 
    126 H126       36.3005   30.6699    6.7483 H         1 UNK         0.0748 
    127 H127       37.9677   30.0550    4.9890 H         1 UNK         0.0771 
    128 H128       36.8453   28.7291    5.2528 H         1 UNK         0.0771 
    129 H129       36.6684   29.7545    3.8350 H         1 UNK         0.0771 
    130 H130       34.6883   29.2536    7.3287 H         1 UNK         0.2980 
    131 H131       32.7028   28.3989    7.6311 H         1 UNK         0.0545 
    132 H132       33.0598   31.6119    7.3317 H         1 UNK         0.3459 
    133 H133       31.4059   32.0825    7.6300 H         1 UNK         0.3459 
    134 H134       32.0733   28.6948    4.6575 H         1 UNK         0.0616 
    135 H135       31.1606   27.7561    5.7932 H         1 UNK         0.0616 
    136 H136       32.9907   24.4605    6.0835 H         1 UNK         0.0634 
    137 H137       32.1264   25.6078    7.0758 H         1 UNK         0.0634 
@<TRIPOS>BOND
     1    1    2 1    
     2    1   72 1    
     3    1   73 1    
     4    1   74 1    
     5    2    3 2    
     6    2    4 am   BACKBONE|DICT|INTERRES
     7    4    5 1    
     8    4   75 1    
     9    5    6 1    
    10    5   35 1    
    11    5   76 1    
    12    6    7 1    
    13    6   77 1    
    14    6   78 1    
    15    7    8 1    
    16    8    9 1    
    17    8   79 1    
    18    8   80 1    
    19    9   10 ar   
    20    9   14 ar   
    21   10   11 ar   
    22   10   81 1    
    23   11   12 ar   
    24   11   71 1    
    25   12   13 ar   
    26   12   82 1    
    27   13   14 ar   
    28   13   15 1    
    29   14   83 1    
    30   15   16 1    
    31   15   84 1    
    32   15   85 1    
    33   16   17 1    
    34   17   18 1    
    35   17   86 1    
    36   17   87 1    
    37   18   19 1    
    38   18   37 1    
    39   18   88 1    
    40   19   20 am   BACKBONE|DICT|INTERRES
    41   19   89 1    
    42   20   21 2    
    43   20   22 1    
    44   22   23 1    
    45   22   24 1    
    46   22   90 1    
    47   23   91 1    
    48   23   92 1    
    49   23   93 1    
    50   24   25 am   BACKBONE|DICT|INTERRES
    51   24   94 1    
    52   25   26 2    
    53   25   27 1    
    54   27   28 1    
    55   27   29 1    
    56   27   95 1    
    57   28   96 1    
    58   28   97 1    
    59   28   98 1    
    60   29   30 am   BACKBONE|DICT|INTERRES
    61   29   99 1    
    62   30   31 2    
    63   30   32 1    
    64   32   33 1    
    65   32   34 1    
    66   32  100 1    
    67   33  101 1    
    68   33  102 1    
    69   33  103 1    
    70   34   35 am   BACKBONE|DICT|INTERRES
    71   34  104 1    
    72   35   36 2    
    73   37   38 2    
    74   37   39 am   BACKBONE|DICT|INTERRES
    75   39   40 1    
    76   39  105 1    
    77   40   41 1    
    78   40   42 1    
    79   40  106 1    
    80   41  107 1    
    81   41  108 1    
    82   41  109 1    
    83   42   43 2    
    84   42   44 am   BACKBONE|DICT|INTERRES
    85   44   45 1    
    86   44  110 1    
    87   45   46 1    
    88   45   47 1    
    89   45  111 1    
    90   46  112 1    
    91   46  113 1    
    92   46  114 1    
    93   47   48 2    
    94   47   49 am   BACKBONE|DICT|INTERRES
    95   49   50 1    
    96   49  115 1    
    97   50   51 1    
    98   50   52 1    
    99   50  116 1    
   100   51  117 1    
   101   51  118 1    
   102   51  119 1    
   103   52   53 2    
   104   52   54 am   BACKBONE|DICT|INTERRES
   105   54   55 1    
   106   54  120 1    
   107   55   56 1    
   108   55   57 1    
   109   55  121 1    
   110   56  122 1    
   111   56  123 1    
   112   56  124 1    
   113   57   58 2    
   114   57   59 am   BACKBONE|DICT|INTERRES
   115   59   60 1    
   116   59  125 1    
   117   60   61 1    
   118   60   62 1    
   119   60  126 1    
   120   61  127 1    
   121   61  128 1    
   122   61  129 1    
   123   62   63 2    
   124   62   64 am   BACKBONE|DICT|INTERRES
   125   64   65 1    
   126   64  130 1    
   127   65   66 1    
   128   65   69 1    
   129   65  131 1    
   130   66   67 am   BACKBONE|DICT|INTERRES
   131   66   68 2    
   132   67  132 1    
   133   67  133 1    
   134   69   70 1    
   135   69  134 1    
   136   69  135 1    
   137   70   71 1    
   138   71  136 1    
   139   71  137 1    
@<TRIPOS>SUBSTRUCTURE
     1 UNK         1 GROUP             0       ****    0 ROOT    
