@<TRIPOS>MOLECULE
3R136
137   139    1
SMALL
USER_CHARGES


@<TRIPOS>ATOM
      1 CA         26.5782   19.4813    5.6399 C.3       0 UNK        -0.1979 
      2 C          27.3095   20.2074    4.5201 C.2       0 UNK         0.4864 
      3 O          27.5339   19.6241    3.4580 O.2       0 UNK        -0.5359 
      4 N          27.6891   21.4710    4.7518 N.am      1 UNK        -0.4318 
      5 CA         28.3392   22.3428    3.7681 C.3       1 UNK         0.0824 
      6 C6         29.0333   23.5408    4.4646 C.3       12 UNK        -0.0944 
      7 S7         30.4457   24.1731    3.5029 S.3       12 UNK        -0.2672 
      8 C8         29.8092   25.7930    2.9840 C.3       12 UNK         0.0333 
      9 C9         30.7555   26.4540    1.9956 C.ar      12 UNK        -0.0807 
     10 C10        31.6531   27.4359    2.4217 C.ar      12 UNK        -0.0894 
     11 C11        32.5385   28.0294    1.5167 C.ar      12 UNK        -0.0804 
     12 C12        32.5114   27.6424    0.1730 C.ar      12 UNK        -0.0824 
     13 C13        31.6132   26.6643   -0.2652 C.ar      12 UNK        -0.0762 
     14 C14        30.7362   26.0766    0.6510 C.ar      12 UNK        -0.0782 
     15 C15        31.6112   26.2190   -1.7208 C.3       12 UNK         0.0230 
     16 S16        30.7653   27.4108   -2.8037 S.3       12 UNK        -0.2608 
     17 C17        29.0364   27.2388   -2.2449 C.3       12 UNK        -0.0989 
     18 CA         28.1086   28.3619   -2.7895 C.3       5 UNK         0.0716 
     19 N          26.7038   27.9718   -2.7698 N.am      5 UNK        -0.4135 
     20 C          26.1106   27.0499   -3.5299 C.2       4 UNK         0.5031 
     21 O          26.6878   26.4147   -4.4144 O.2       4 UNK        -0.5229 
     22 CA         24.6305   26.7668   -3.2061 C.3       4 UNK         0.0329 
     23 CB         23.9924   25.7539   -4.1754 C.3       4 UNK        -0.2001 
     24 N          24.4913   26.2654   -1.8363 N.am      4 UNK        -0.4303 
     25 C          24.4838   27.0198   -0.7275 C.2       3 UNK         0.5044 
     26 O          24.5124   28.2506   -0.7421 O.2       3 UNK        -0.5152 
     27 CA         24.4800   26.2797    0.6217 C.3       3 UNK         0.0319 
     28 CB         23.0418   26.0842    1.1268 C.3       3 UNK        -0.2001 
     29 N          25.1575   24.9805    0.5615 N.am      3 UNK        -0.4354 
     30 C          26.4821   24.8245    0.4310 C.2       2 UNK         0.4964 
     31 O          27.2850   25.7574    0.3909 O.2       2 UNK        -0.5047 
     32 CA         26.9957   23.3813    0.3006 C.3       2 UNK         0.0288 
     33 CB         27.8184   23.2087   -0.9888 C.3       2 UNK        -0.2113 
     34 N          27.8046   22.9815    1.4539 N.am      2 UNK        -0.4145 
     35 C          27.3275   22.8004    2.6935 C.2       1 UNK         0.5006 
     36 O          26.1456   22.9777    3.0041 O.2       1 UNK        -0.5103 
     37 C          28.2219   29.6885   -2.0092 C.2       5 UNK         0.5055 
     38 O          27.2050   30.3463   -1.7686 O.2       5 UNK        -0.5220 
     39 N          29.4481   30.0603   -1.6185 N.am      6 UNK        -0.4450 
     40 CA         29.7448   31.2228   -0.7764 C.3       6 UNK         0.0367 
     41 CB         31.2663   31.4305   -0.7067 C.3       6 UNK        -0.1929 
     42 C          29.1511   31.1015    0.6383 C.2       6 UNK         0.5070 
     43 O          28.6909   32.1037    1.1847 O.2       6 UNK        -0.5237 
     44 N          29.1691   29.8762    1.1895 N.am      7 UNK        -0.4739 
     45 CA         28.5820   29.4648    2.4742 C.3       7 UNK         0.0276 
     46 CB         27.0418   29.5348    2.4051 C.3       7 UNK        -0.1927 
     47 C          29.1567   30.1902    3.7114 C.2       7 UNK         0.5013 
     48 O          28.4969   30.2362    4.7515 O.2       7 UNK        -0.5193 
     49 N          30.3678   30.7475    3.5831 N.am      8 UNK        -0.4253 
     50 CA         31.0555   31.5019    4.6296 C.3       8 UNK         0.0242 
     51 CB         32.1123   32.4102    3.9776 C.3       8 UNK        -0.2000 
     52 C          31.7117   30.5741    5.6621 C.2       8 UNK         0.4948 
     53 O          32.1799   29.4898    5.3089 O.2       8 UNK        -0.5275 
     54 N          31.8058   31.0533    6.9097 N.am      9 UNK        -0.4246 
     55 CA         32.4693   30.3605    8.0216 C.3       9 UNK         0.0261 
     56 CB         32.1579   31.0953    9.3356 C.3       9 UNK        -0.1959 
     57 C          33.9916   30.2051    7.8407 C.2       9 UNK         0.5033 
     58 O          34.5804   29.3090    8.4467 O.2       9 UNK        -0.5390 
     59 N          34.5969   31.0547    6.9968 N.am      10 UNK        -0.4215 
     60 CA         36.0200   31.0544    6.6421 C.3       10 UNK         0.0240 
     61 CB         36.3011   32.2369    5.7003 C.3       10 UNK        -0.1982 
     62 C          36.5227   29.7405    6.0138 C.2       10 UNK         0.4970 
     63 O          37.7086   29.4349    6.1461 O.2       10 UNK        -0.4916 
     64 N          35.6259   28.9867    5.3639 N.am      11 UNK        -0.4279 
     65 CA         35.9013   27.6398    4.8414 C.3       11 UNK         0.1003 
     66 C          35.8914   26.5229    5.9283 C.2       11 UNK         0.5709 
     67 N          35.5261   26.7919    7.1774 N.am      11 UNK        -0.7358 
     68 O          36.2411   25.3822    5.6339 O.2       11 UNK        -0.4999 
     69 C69        34.9654   27.2826    3.6588 C.3       12 UNK        -0.0954 
     70 S70        35.1980   28.3842    2.2208 S.3       12 UNK        -0.2268 
     71 C71        33.5324   29.0794    1.9918 C.3       12 UNK         0.0203 
     72 H72        25.5861   19.1792    5.3053 H         1 UNK         0.0888 
     73 H73        27.1283   18.5862    5.9290 H         1 UNK         0.0888 
     74 H74        26.4614   20.1077    6.5242 H         1 UNK         0.0888 
     75 H75        27.4452   21.9064    5.6298 H         1 UNK         0.3017 
     76 H76        29.1047   21.7386    3.2751 H         1 UNK         0.0873 
     77 H77        28.3265   24.3409    4.6953 H         1 UNK         0.0745 
     78 H78        29.4431   23.2266    5.4262 H         1 UNK         0.0745 
     79 H79        28.8250   25.6749    2.5305 H         1 UNK         0.0705 
     80 H80        29.6719   26.4220    3.8650 H         1 UNK         0.0705 
     81 H81        31.6706   27.7282    3.4626 H         1 UNK         0.1334 
     82 H82        33.1995   28.0929   -0.5295 H         1 UNK         0.1417 
     83 H83        30.0400   25.3174    0.3234 H         1 UNK         0.1562 
     84 H84        31.1425   25.2392   -1.8267 H         1 UNK         0.0748 
     85 H85        32.6403   26.1012   -2.0635 H         1 UNK         0.0748 
     86 H86        28.9844   27.1985   -1.1563 H         1 UNK         0.0940 
     87 H87        28.6970   26.2598   -2.5861 H         1 UNK         0.0940 
     88 H88        28.3699   28.5768   -3.8277 H         1 UNK         0.0703 
     89 H89        26.1449   28.4757   -2.0856 H         1 UNK         0.3081 
     90 H90        24.0864   27.7091   -3.3016 H         1 UNK         0.0719 
     91 H91        24.4866   24.7825   -4.1310 H         1 UNK         0.0809 
     92 H92        22.9359   25.6035   -3.9526 H         1 UNK         0.0809 
     93 H93        24.0574   26.1062   -5.2058 H         1 UNK         0.0809 
     94 H94        24.4935   25.2625   -1.7238 H         1 UNK         0.2990 
     95 H95        25.0115   26.9060    1.3417 H         1 UNK         0.0690 
     96 H96        23.0281   25.6272    2.1165 H         1 UNK         0.0788 
     97 H97        22.4582   25.4526    0.4558 H         1 UNK         0.0788 
     98 H98        22.5238   27.0412    1.2064 H         1 UNK         0.0788 
     99 H99        24.5722   24.1596    0.6278 H         1 UNK         0.2993 
    100 H100       26.1395   22.7055    0.2425 H         1 UNK         0.0949 
    101 H101       28.7177   23.8250   -0.9857 H         1 UNK         0.0767 
    102 H102       28.1235   22.1715   -1.1289 H         1 UNK         0.0767 
    103 H103       27.2345   23.4947   -1.8650 H         1 UNK         0.0767 
    104 H104       28.7924   22.8511    1.2904 H         1 UNK         0.3013 
    105 H105       30.2238   29.4610   -1.8733 H         1 UNK         0.3121 
    106 H106       29.2990   32.1013   -1.2479 H         1 UNK         0.0774 
    107 H107       31.5155   32.2895   -0.0820 H         1 UNK         0.0815 
    108 H108       31.7741   30.5623   -0.2868 H         1 UNK         0.0815 
    109 H109       31.6861   31.6181   -1.6951 H         1 UNK         0.0815 
    110 H110       29.5998   29.1337    0.6560 H         1 UNK         0.2987 
    111 H111       28.8431   28.4164    2.6025 H         1 UNK         0.0949 
    112 H112       26.6873   30.5636    2.3358 H         1 UNK         0.0806 
    113 H113       26.6598   28.9900    1.5410 H         1 UNK         0.0806 
    114 H114       26.5864   29.0916    3.2914 H         1 UNK         0.0806 
    115 H115       30.8495   30.6354    2.7045 H         1 UNK         0.3010 
    116 H116       30.3222   32.1329    5.1372 H         1 UNK         0.0829 
    117 H117       31.6612   33.0749    3.2403 H         1 UNK         0.0813 
    118 H118       32.6000   33.0420    4.7210 H         1 UNK         0.0813 
    119 H119       32.8929   31.8371    3.4767 H         1 UNK         0.0813 
    120 H120       31.4012   31.9556    7.1178 H         1 UNK         0.3038 
    121 H121       32.0491   29.3542    8.0845 H         1 UNK         0.0769 
    122 H122       32.5373   32.1179    9.3278 H         1 UNK         0.0811 
    123 H123       32.6147   30.5854   10.1852 H         1 UNK         0.0811 
    124 H124       31.0849   31.1350    9.5245 H         1 UNK         0.0811 
    125 H125       34.0250   31.7603    6.5578 H         1 UNK         0.3204 
    126 H126       36.5843   31.2068    7.5644 H         1 UNK         0.0748 
    127 H127       37.3589   32.2837    5.4369 H         1 UNK         0.0771 
    128 H128       35.7375   32.1548    4.7698 H         1 UNK         0.0771 
    129 H129       36.0447   33.1881    6.1673 H         1 UNK         0.0771 
    130 H130       34.6645   29.2941    5.3145 H         1 UNK         0.2980 
    131 H131       36.9195   27.6411    4.4476 H         1 UNK         0.0545 
    132 H132       35.2448   27.7244    7.4614 H         1 UNK         0.3459 
    133 H133       35.5377   26.0492    7.8577 H         1 UNK         0.3459 
    134 H134       33.9282   27.3059    3.9924 H         1 UNK         0.0616 
    135 H135       35.1488   26.2647    3.3102 H         1 UNK         0.0616 
    136 H136       33.2027   29.5311    2.9258 H         1 UNK         0.0634 
    137 H137       33.5880   29.8888    1.2631 H         1 UNK         0.0634 
@<TRIPOS>BOND
     1    1    2 1    
     2    1   72 1    
     3    1   73 1    
     4    1   74 1    
     5    2    3 2    
     6    2    4 am   BACKBONE|DICT|INTERRES
     7    4    5 1    
     8    4   75 1    
     9    5    6 1    
    10    5   35 1    
    11    5   76 1    
    12    6    7 1    
    13    6   77 1    
    14    6   78 1    
    15    7    8 1    
    16    8    9 1    
    17    8   79 1    
    18    8   80 1    
    19    9   10 ar   
    20    9   14 ar   
    21   10   11 ar   
    22   10   81 1    
    23   11   12 ar   
    24   11   71 1    
    25   12   13 ar   
    26   12   82 1    
    27   13   14 ar   
    28   13   15 1    
    29   14   83 1    
    30   15   16 1    
    31   15   84 1    
    32   15   85 1    
    33   16   17 1    
    34   17   18 1    
    35   17   86 1    
    36   17   87 1    
    37   18   19 1    
    38   18   37 1    
    39   18   88 1    
    40   19   20 am   BACKBONE|DICT|INTERRES
    41   19   89 1    
    42   20   21 2    
    43   20   22 1    
    44   22   23 1    
    45   22   24 1    
    46   22   90 1    
    47   23   91 1    
    48   23   92 1    
    49   23   93 1    
    50   24   25 am   BACKBONE|DICT|INTERRES
    51   24   94 1    
    52   25   26 2    
    53   25   27 1    
    54   27   28 1    
    55   27   29 1    
    56   27   95 1    
    57   28   96 1    
    58   28   97 1    
    59   28   98 1    
    60   29   30 am   BACKBONE|DICT|INTERRES
    61   29   99 1    
    62   30   31 2    
    63   30   32 1    
    64   32   33 1    
    65   32   34 1    
    66   32  100 1    
    67   33  101 1    
    68   33  102 1    
    69   33  103 1    
    70   34   35 am   BACKBONE|DICT|INTERRES
    71   34  104 1    
    72   35   36 2    
    73   37   38 2    
    74   37   39 am   BACKBONE|DICT|INTERRES
    75   39   40 1    
    76   39  105 1    
    77   40   41 1    
    78   40   42 1    
    79   40  106 1    
    80   41  107 1    
    81   41  108 1    
    82   41  109 1    
    83   42   43 2    
    84   42   44 am   BACKBONE|DICT|INTERRES
    85   44   45 1    
    86   44  110 1    
    87   45   46 1    
    88   45   47 1    
    89   45  111 1    
    90   46  112 1    
    91   46  113 1    
    92   46  114 1    
    93   47   48 2    
    94   47   49 am   BACKBONE|DICT|INTERRES
    95   49   50 1    
    96   49  115 1    
    97   50   51 1    
    98   50   52 1    
    99   50  116 1    
   100   51  117 1    
   101   51  118 1    
   102   51  119 1    
   103   52   53 2    
   104   52   54 am   BACKBONE|DICT|INTERRES
   105   54   55 1    
   106   54  120 1    
   107   55   56 1    
   108   55   57 1    
   109   55  121 1    
   110   56  122 1    
   111   56  123 1    
   112   56  124 1    
   113   57   58 2    
   114   57   59 am   BACKBONE|DICT|INTERRES
   115   59   60 1    
   116   59  125 1    
   117   60   61 1    
   118   60   62 1    
   119   60  126 1    
   120   61  127 1    
   121   61  128 1    
   122   61  129 1    
   123   62   63 2    
   124   62   64 am   BACKBONE|DICT|INTERRES
   125   64   65 1    
   126   64  130 1    
   127   65   66 1    
   128   65   69 1    
   129   65  131 1    
   130   66   67 am   BACKBONE|DICT|INTERRES
   131   66   68 2    
   132   67  132 1    
   133   67  133 1    
   134   69   70 1    
   135   69  134 1    
   136   69  135 1    
   137   70   71 1    
   138   71  136 1    
   139   71  137 1    
@<TRIPOS>SUBSTRUCTURE
     1 UNK         1 GROUP             0       ****    0 ROOT    
