@<TRIPOS>MOLECULE
3R136
137   139    1
SMALL
USER_CHARGES


@<TRIPOS>ATOM
      1 CA         28.9786   22.9391   -6.5785 C.3       0 UNK        -0.1979 
      2 C          28.6317   23.7899   -5.3655 C.2       0 UNK         0.4864 
      3 O          27.6527   24.5357   -5.4055 O.2       0 UNK        -0.5359 
      4 N          29.4329   23.6872   -4.2958 N.am      1 UNK        -0.4318 
      5 CA         29.2411   24.3858   -3.0203 C.3       1 UNK         0.0824 
      6 C6         30.5216   24.2990   -2.1505 C.3       12 UNK        -0.0944 
      7 S7         30.4127   25.1704   -0.5504 S.3       12 UNK        -0.2672 
      8 C8         30.7826   23.8094    0.5977 C.3       12 UNK         0.0333 
      9 C9         30.8786   24.2884    2.0383 C.ar      12 UNK        -0.0807 
     10 C10        31.9400   25.1057    2.4381 C.ar      12 UNK        -0.0894 
     11 C11        32.0611   25.5168    3.7692 C.ar      12 UNK        -0.0804 
     12 C12        31.1124   25.0965    4.7070 C.ar      12 UNK        -0.0824 
     13 C13        30.0356   24.2942    4.3151 C.ar      12 UNK        -0.0762 
     14 C14        29.9268   23.8901    2.9806 C.ar      12 UNK        -0.0782 
     15 C15        28.9824   23.8673    5.3270 C.3       12 UNK         0.0230 
     16 S16        27.3580   24.6074    4.9644 S.3       12 UNK        -0.2608 
     17 C17        27.6399   26.3701    5.3532 C.3       12 UNK        -0.0989 
     18 CA         28.1516   27.2014    4.1486 C.3       5 UNK         0.0716 
     19 N          27.3343   27.0205    2.9503 N.am      5 UNK        -0.4135 
     20 C          27.6229   27.4810    1.7285 C.2       4 UNK         0.5031 
     21 O          28.6472   28.1193    1.4744 O.2       4 UNK        -0.5229 
     22 CA         26.5851   27.2033    0.6159 C.3       4 UNK         0.0329 
     23 CB         27.1093   27.6017   -0.7764 C.3       4 UNK        -0.2001 
     24 N          26.0937   25.8145    0.5743 N.am      4 UNK        -0.4303 
     25 C          25.2489   25.2635    1.4622 C.2       3 UNK         0.5044 
     26 O          24.8158   25.8796    2.4376 O.2       3 UNK        -0.5152 
     27 CA         24.7841   23.8077    1.2615 C.3       3 UNK         0.0319 
     28 CB         23.2489   23.7351    1.1779 C.3       3 UNK        -0.2001 
     29 N          25.3401   23.1564    0.0765 N.am      3 UNK        -0.4354 
     30 C          26.4991   22.4885    0.0264 C.2       2 UNK         0.4964 
     31 O          27.2680   22.3709    0.9804 O.2       2 UNK        -0.5047 
     32 CA         26.8707   21.8408   -1.3240 C.3       2 UNK         0.0288 
     33 CB         25.6713   21.6492   -2.2817 C.3       2 UNK        -0.2113 
     34 N          27.9495   22.5631   -2.0064 N.am      2 UNK        -0.4145 
     35 C          27.9798   23.8745   -2.2940 C.2       1 UNK         0.5006 
     36 O          27.0680   24.6604   -2.0297 O.2       1 UNK        -0.5103 
     37 C          28.2431   28.6927    4.5167 C.2       5 UNK         0.5055 
     38 O          27.2414   29.4069    4.4231 O.2       5 UNK        -0.5220 
     39 N          29.4472   29.1380    4.8963 N.am      6 UNK        -0.4450 
     40 CA         29.8606   30.5173    5.1942 C.3       6 UNK         0.0367 
     41 CB         29.0429   31.1430    6.3394 C.3       6 UNK        -0.1929 
     42 C          29.9152   31.4393    3.9642 C.2       6 UNK         0.5070 
     43 O          30.8653   32.2120    3.8373 O.2       6 UNK        -0.5237 
     44 N          28.9397   31.3152    3.0561 N.am      7 UNK        -0.4739 
     45 CA         28.8863   32.0062    1.7654 C.3       7 UNK         0.0276 
     46 CB         27.5484   31.6905    1.0778 C.3       7 UNK        -0.1927 
     47 C          30.0673   31.6594    0.8403 C.2       7 UNK         0.5013 
     48 O          30.4839   32.5141    0.0578 O.2       7 UNK        -0.5193 
     49 N          30.5847   30.4274    0.9580 N.am      8 UNK        -0.4253 
     50 CA         31.7603   29.9266    0.2483 C.3       8 UNK         0.0242 
     51 CB         31.9413   28.4298    0.5477 C.3       8 UNK        -0.2000 
     52 C          33.0442   30.7158    0.5581 C.2       8 UNK         0.4948 
     53 O          33.6267   31.2902   -0.3633 O.2       8 UNK        -0.5275 
     54 N          33.4722   30.7211    1.8299 N.am      9 UNK        -0.4246 
     55 CA         34.7355   31.3254    2.2663 C.3       9 UNK         0.0261 
     56 CB         35.9366   30.4998    1.7460 C.3       9 UNK        -0.1959 
     57 C          34.7801   31.5100    3.7926 C.2       9 UNK         0.5033 
     58 O          35.7543   31.0946    4.4244 O.2       9 UNK        -0.5390 
     59 N          33.7265   32.1015    4.3767 N.am      10 UNK        -0.4215 
     60 CA         33.5297   32.4130    5.8063 C.3       10 UNK         0.0240 
     61 CB         34.6333   33.3384    6.3565 C.3       10 UNK        -0.1982 
     62 C          33.3296   31.1801    6.7072 C.2       10 UNK         0.4970 
     63 O          32.4322   31.1975    7.5494 O.2       10 UNK        -0.4916 
     64 N          34.1242   30.1285    6.4807 N.am      11 UNK        -0.4279 
     65 CA         33.9622   28.7615    7.0039 C.3       11 UNK         0.1003 
     66 C          34.0975   28.6158    8.5504 C.2       11 UNK         0.5709 
     67 N          34.6876   29.5755    9.2528 N.am      11 UNK        -0.7358 
     68 O          33.6971   27.6042    9.1221 O.2       11 UNK        -0.4999 
     69 C69        32.6963   28.0588    6.4284 C.3       12 UNK        -0.0954 
     70 S70        32.6626   28.0881    4.5985 S.3       12 UNK        -0.2268 
     71 C71        33.2227   26.4065    4.1874 C.3       12 UNK         0.0203 
     72 H72        29.8707   22.3352   -6.4131 H         1 UNK         0.0888 
     73 H73        28.1535   22.2671   -6.8132 H         1 UNK         0.0888 
     74 H74        29.1567   23.5757   -7.4448 H         1 UNK         0.0888 
     75 H75        30.2267   23.0640   -4.3406 H         1 UNK         0.3017 
     76 H76        29.0698   25.4405   -3.2482 H         1 UNK         0.0873 
     77 H77        30.7957   23.2564   -1.9805 H         1 UNK         0.0745 
     78 H78        31.3595   24.7360   -2.6962 H         1 UNK         0.0745 
     79 H79        31.7290   23.3454    0.3160 H         1 UNK         0.0705 
     80 H80        30.0152   23.0401    0.4958 H         1 UNK         0.0705 
     81 H81        32.6723   25.4195    1.7066 H         1 UNK         0.1334 
     82 H82        31.2034   25.4092    5.7378 H         1 UNK         0.1417 
     83 H83        29.0953   23.2673    2.6783 H         1 UNK         0.1562 
     84 H84        29.2820   24.1250    6.3441 H         1 UNK         0.0748 
     85 H85        28.8868   22.7809    5.3022 H         1 UNK         0.0748 
     86 H86        28.3353   26.4430    6.1915 H         1 UNK         0.0940 
     87 H87        26.6921   26.7748    5.7147 H         1 UNK         0.0940 
     88 H88        29.1539   26.8614    3.8873 H         1 UNK         0.0703 
     89 H89        26.4467   26.5418    3.0733 H         1 UNK         0.3081 
     90 H90        25.7306   27.8478    0.8317 H         1 UNK         0.0719 
     91 H91        28.0022   27.0358   -1.0433 H         1 UNK         0.0809 
     92 H92        26.3600   27.4320   -1.5495 H         1 UNK         0.0809 
     93 H93        27.3746   28.6591   -0.8097 H         1 UNK         0.0809 
     94 H94        26.4138   25.2526   -0.2091 H         1 UNK         0.2990 
     95 H95        25.0975   23.2533    2.1490 H         1 UNK         0.0690 
     96 H96        22.9045   22.7043    1.0909 H         1 UNK         0.0788 
     97 H97        22.8646   24.2918    0.3223 H         1 UNK         0.0788 
     98 H98        22.7851   24.1522    2.0730 H         1 UNK         0.0788 
     99 H99        24.8047   23.2370   -0.7763 H         1 UNK         0.2993 
    100 H100       27.2600   20.8500   -1.0837 H         1 UNK         0.0949 
    101 H101       25.2694   22.5973   -2.6411 H         1 UNK         0.0767 
    102 H102       25.9643   21.0695   -3.1572 H         1 UNK         0.0767 
    103 H103       24.8606   21.1035   -1.7966 H         1 UNK         0.0767 
    104 H104       28.7549   22.0068   -2.2544 H         1 UNK         0.3013 
    105 H105       30.2101   28.4727    4.8925 H         1 UNK         0.3121 
    106 H106       30.8863   30.4287    5.5431 H         1 UNK         0.0774 
    107 H107       29.4603   32.1095    6.6249 H         1 UNK         0.0815 
    108 H108       28.0025   31.3104    6.0608 H         1 UNK         0.0815 
    109 H109       29.0585   30.5109    7.2271 H         1 UNK         0.0815 
    110 H110       28.1894   30.6639    3.2681 H         1 UNK         0.2987 
    111 H111       28.9304   33.0795    1.9626 H         1 UNK         0.0949 
    112 H112       27.4695   32.2076    0.1205 H         1 UNK         0.0806 
    113 H113       27.4381   30.6233    0.8825 H         1 UNK         0.0806 
    114 H114       26.7032   32.0088    1.6883 H         1 UNK         0.0806 
    115 H115       30.0968   29.7651    1.5501 H         1 UNK         0.3010 
    116 H116       31.5615   30.0309   -0.8203 H         1 UNK         0.0829 
    117 H117       31.0749   27.8639    0.2090 H         1 UNK         0.0813 
    118 H118       32.8139   28.0253    0.0334 H         1 UNK         0.0813 
    119 H119       32.0641   28.2324    1.6124 H         1 UNK         0.0813 
    120 H120       32.9352   30.2345    2.5351 H         1 UNK         0.3038 
    121 H121       34.8012   32.3283    1.8391 H         1 UNK         0.0769 
    122 H122       36.8837   30.9394    2.0619 H         1 UNK         0.0811 
    123 H123       35.9613   30.4553    0.6576 H         1 UNK         0.0811 
    124 H124       35.9089   29.4762    2.1216 H         1 UNK         0.0811 
    125 H125       32.9234   32.3324    3.7981 H         1 UNK         0.3204 
    126 H126       32.5945   32.9739    5.8483 H         1 UNK         0.0748 
    127 H127       34.4032   33.6511    7.3759 H         1 UNK         0.0771 
    128 H128       35.6073   32.8492    6.3825 H         1 UNK         0.0771 
    129 H129       34.7280   34.2422    5.7546 H         1 UNK         0.0771 
    130 H130       34.8530   30.2536    5.7816 H         1 UNK         0.2980 
    131 H131       34.8228   28.2153    6.6168 H         1 UNK         0.0545 
    132 H132       34.7830   29.4717   10.2506 H         1 UNK         0.3459 
    133 H133       35.0219   30.4078    8.7944 H         1 UNK         0.3459 
    134 H134       31.7929   28.5428    6.8012 H         1 UNK         0.0616 
    135 H135       32.6401   27.0247    6.7702 H         1 UNK         0.0616 
    136 H136       33.7527   25.9576    5.0284 H         1 UNK         0.0634 
    137 H137       33.9525   26.4824    3.3800 H         1 UNK         0.0634 
@<TRIPOS>BOND
     1    1    2 1    
     2    1   72 1    
     3    1   73 1    
     4    1   74 1    
     5    2    3 2    
     6    2    4 am   BACKBONE|DICT|INTERRES
     7    4    5 1    
     8    4   75 1    
     9    5    6 1    
    10    5   35 1    
    11    5   76 1    
    12    6    7 1    
    13    6   77 1    
    14    6   78 1    
    15    7    8 1    
    16    8    9 1    
    17    8   79 1    
    18    8   80 1    
    19    9   10 ar   
    20    9   14 ar   
    21   10   11 ar   
    22   10   81 1    
    23   11   12 ar   
    24   11   71 1    
    25   12   13 ar   
    26   12   82 1    
    27   13   14 ar   
    28   13   15 1    
    29   14   83 1    
    30   15   16 1    
    31   15   84 1    
    32   15   85 1    
    33   16   17 1    
    34   17   18 1    
    35   17   86 1    
    36   17   87 1    
    37   18   19 1    
    38   18   37 1    
    39   18   88 1    
    40   19   20 am   BACKBONE|DICT|INTERRES
    41   19   89 1    
    42   20   21 2    
    43   20   22 1    
    44   22   23 1    
    45   22   24 1    
    46   22   90 1    
    47   23   91 1    
    48   23   92 1    
    49   23   93 1    
    50   24   25 am   BACKBONE|DICT|INTERRES
    51   24   94 1    
    52   25   26 2    
    53   25   27 1    
    54   27   28 1    
    55   27   29 1    
    56   27   95 1    
    57   28   96 1    
    58   28   97 1    
    59   28   98 1    
    60   29   30 am   BACKBONE|DICT|INTERRES
    61   29   99 1    
    62   30   31 2    
    63   30   32 1    
    64   32   33 1    
    65   32   34 1    
    66   32  100 1    
    67   33  101 1    
    68   33  102 1    
    69   33  103 1    
    70   34   35 am   BACKBONE|DICT|INTERRES
    71   34  104 1    
    72   35   36 2    
    73   37   38 2    
    74   37   39 am   BACKBONE|DICT|INTERRES
    75   39   40 1    
    76   39  105 1    
    77   40   41 1    
    78   40   42 1    
    79   40  106 1    
    80   41  107 1    
    81   41  108 1    
    82   41  109 1    
    83   42   43 2    
    84   42   44 am   BACKBONE|DICT|INTERRES
    85   44   45 1    
    86   44  110 1    
    87   45   46 1    
    88   45   47 1    
    89   45  111 1    
    90   46  112 1    
    91   46  113 1    
    92   46  114 1    
    93   47   48 2    
    94   47   49 am   BACKBONE|DICT|INTERRES
    95   49   50 1    
    96   49  115 1    
    97   50   51 1    
    98   50   52 1    
    99   50  116 1    
   100   51  117 1    
   101   51  118 1    
   102   51  119 1    
   103   52   53 2    
   104   52   54 am   BACKBONE|DICT|INTERRES
   105   54   55 1    
   106   54  120 1    
   107   55   56 1    
   108   55   57 1    
   109   55  121 1    
   110   56  122 1    
   111   56  123 1    
   112   56  124 1    
   113   57   58 2    
   114   57   59 am   BACKBONE|DICT|INTERRES
   115   59   60 1    
   116   59  125 1    
   117   60   61 1    
   118   60   62 1    
   119   60  126 1    
   120   61  127 1    
   121   61  128 1    
   122   61  129 1    
   123   62   63 2    
   124   62   64 am   BACKBONE|DICT|INTERRES
   125   64   65 1    
   126   64  130 1    
   127   65   66 1    
   128   65   69 1    
   129   65  131 1    
   130   66   67 am   BACKBONE|DICT|INTERRES
   131   66   68 2    
   132   67  132 1    
   133   67  133 1    
   134   69   70 1    
   135   69  134 1    
   136   69  135 1    
   137   70   71 1    
   138   71  136 1    
   139   71  137 1    
@<TRIPOS>SUBSTRUCTURE
     1 UNK         1 GROUP             0       ****    0 ROOT    
