@<TRIPOS>MOLECULE
3R136
137   139    1
SMALL
USER_CHARGES


@<TRIPOS>ATOM
      1 CA         28.9974   21.5706    0.0445 C.3       0 UNK        -0.1979 
      2 C          29.3253   22.8933   -0.6310 C.2       0 UNK         0.4864 
      3 O          29.2592   22.9846   -1.8574 O.2       0 UNK        -0.5359 
      4 N          29.6647   23.9198    0.1615 N.am      1 UNK        -0.4318 
      5 CA         30.0049   25.2818   -0.2678 C.3       1 UNK         0.0824 
      6 C6         30.4334   26.1645    0.9327 C.3       12 UNK        -0.0944 
      7 S7         32.1207   25.7863    1.5143 S.3       12 UNK        -0.2672 
      8 C8         31.8922   24.3866    2.6593 C.3       12 UNK         0.0333 
      9 C9         31.2812   24.7994    3.9901 C.ar      12 UNK        -0.0807 
     10 C10        32.1088   25.2664    5.0137 C.ar      12 UNK        -0.0894 
     11 C11        31.5821   25.5932    6.2654 C.ar      12 UNK        -0.0804 
     12 C12        30.2093   25.4498    6.4906 C.ar      12 UNK        -0.0824 
     13 C13        29.3687   24.9759    5.4761 C.ar      12 UNK        -0.0762 
     14 C14        29.9098   24.6565    4.2264 C.ar      12 UNK        -0.0782 
     15 C15        27.8850   24.7709    5.7477 C.3       12 UNK         0.0230 
     16 S16        26.9687   26.3360    5.6191 S.3       12 UNK        -0.2608 
     17 C17        25.8585   26.0557    4.1911 C.3       12 UNK        -0.0989 
     18 CA         26.4861   26.4401    2.8211 C.3       5 UNK         0.0716 
     19 N          25.7373   25.9321    1.6667 N.am      5 UNK        -0.4135 
     20 C          24.4838   26.2660    1.3262 C.2       4 UNK         0.5031 
     21 O          23.7473   26.9577    2.0305 O.2       4 UNK        -0.5229 
     22 CA         23.9467   25.7680   -0.0267 C.3       4 UNK         0.0329 
     23 CB         23.4569   26.9452   -0.8917 C.3       4 UNK        -0.2001 
     24 N          24.9229   24.9936   -0.8014 N.am      4 UNK        -0.4303 
     25 C          24.6235   23.9057   -1.5283 C.2       3 UNK         0.5044 
     26 O          23.5229   23.3520   -1.4951 O.2       3 UNK        -0.5152 
     27 CA         25.7228   23.3356   -2.4562 C.3       3 UNK         0.0319 
     28 CB         25.1431   22.7254   -3.7498 C.3       3 UNK        -0.2001 
     29 N          26.7983   24.2853   -2.7713 N.am      3 UNK        -0.4354 
     30 C          26.6874   25.4913   -3.3545 C.2       2 UNK         0.4964 
     31 O          25.6408   25.9174   -3.8445 O.2       2 UNK        -0.5047 
     32 CA         27.9405   26.3959   -3.3489 C.3       2 UNK         0.0288 
     33 CB         27.5674   27.8826   -3.1772 C.3       2 UNK        -0.2113 
     34 N          28.9611   26.0049   -2.3627 N.am      2 UNK        -0.4145 
     35 C          28.8206   25.9055   -1.0308 C.2       1 UNK         0.5006 
     36 O          27.7930   26.2015   -0.4125 O.2       1 UNK        -0.5103 
     37 C          26.7871   27.9456    2.6479 C.2       5 UNK         0.5055 
     38 O          26.4650   28.7637    3.5129 O.2       5 UNK        -0.5220 
     39 N          27.4392   28.2892    1.5284 N.am      6 UNK        -0.4450 
     40 CA         28.0621   29.5955    1.2971 C.3       6 UNK         0.0367 
     41 CB         28.2730   29.8024   -0.2123 C.3       6 UNK        -0.1929 
     42 C          29.3750   29.7035    2.0965 C.2       6 UNK         0.5070 
     43 O          30.4562   29.7597    1.5101 O.2       6 UNK        -0.5237 
     44 N          29.2464   29.6903    3.4305 N.am      7 UNK        -0.4739 
     45 CA         30.3173   29.5853    4.4281 C.3       7 UNK         0.0276 
     46 CB         29.7007   29.7138    5.8293 C.3       7 UNK        -0.1927 
     47 C          31.4720   30.5834    4.2573 C.2       7 UNK         0.5013 
     48 O          32.6144   30.2365    4.5543 O.2       7 UNK        -0.5193 
     49 N          31.1753   31.7784    3.7274 N.am      8 UNK        -0.4253 
     50 CA         32.1427   32.8237    3.3748 C.3       8 UNK         0.0242 
     51 CB         31.3830   34.0448    2.8317 C.3       8 UNK        -0.2000 
     52 C          33.2341   32.3827    2.3770 C.2       8 UNK         0.4948 
     53 O          34.2960   33.0053    2.3449 O.2       8 UNK        -0.5275 
     54 N          32.9793   31.3159    1.6042 N.am      9 UNK        -0.4246 
     55 CA         33.9583   30.6746    0.7244 C.3       9 UNK         0.0261 
     56 CB         33.2101   29.7981   -0.2951 C.3       9 UNK        -0.1959 
     57 C          35.0114   29.8334    1.4757 C.2       9 UNK         0.5033 
     58 O          36.0066   29.4527    0.8560 O.2       9 UNK        -0.5390 
     59 N          34.7831   29.5329    2.7619 N.am      10 UNK        -0.4215 
     60 CA         35.6160   28.6553    3.5783 C.3       10 UNK         0.0240 
     61 CB         35.0054   27.2395    3.5721 C.3       10 UNK        -0.1982 
     62 C          35.7838   29.2551    4.9824 C.2       10 UNK         0.4970 
     63 O          36.6674   30.0909    5.1756 O.2       10 UNK        -0.4916 
     64 N          34.9616   28.8010    5.9357 N.am      11 UNK        -0.4279 
     65 CA         34.9721   29.1971    7.3529 C.3       11 UNK         0.1003 
     66 C          34.5928   30.6773    7.6502 C.2       11 UNK         0.5709 
     67 N          33.9103   31.3834    6.7600 N.am      11 UNK        -0.7358 
     68 O          34.9411   31.1967    8.7083 O.2       11 UNK        -0.4999 
     69 C69        34.1540   28.2049    8.2269 C.3       12 UNK        -0.0954 
     70 S70        32.4795   27.8640    7.5707 S.3       12 UNK        -0.2268 
     71 C71        32.5109   26.0556    7.3783 C.3       12 UNK         0.0203 
     72 H72        27.9756   21.2734   -0.1891 H         1 UNK         0.0888 
     73 H73        29.6690   20.7913   -0.3149 H         1 UNK         0.0888 
     74 H74        29.0949   21.6282    1.1284 H         1 UNK         0.0888 
     75 H75        29.6808   23.7706    1.1572 H         1 UNK         0.3017 
     76 H76        30.8495   25.2087   -0.9566 H         1 UNK         0.0873 
     77 H77        29.7247   26.1018    1.7585 H         1 UNK         0.0745 
     78 H78        30.4517   27.2147    0.6370 H         1 UNK         0.0745 
     79 H79        31.3048   23.5974    2.1934 H         1 UNK         0.0705 
     80 H80        32.8721   23.9425    2.8417 H         1 UNK         0.0705 
     81 H81        33.1724   25.3485    4.8420 H         1 UNK         0.1334 
     82 H82        29.7970   25.6944    7.4602 H         1 UNK         0.1417 
     83 H83        29.2649   24.2731    3.4492 H         1 UNK         0.1562 
     84 H84        27.7507   24.3688    6.7530 H         1 UNK         0.0748 
     85 H85        27.4715   24.0239    5.0689 H         1 UNK         0.0748 
     86 H86        24.9442   26.6260    4.3638 H         1 UNK         0.0940 
     87 H87        25.5507   25.0093    4.1830 H         1 UNK         0.0940 
     88 H88        27.4544   25.9413    2.7698 H         1 UNK         0.0703 
     89 H89        26.2796   25.3957    1.0041 H         1 UNK         0.3081 
     90 H90        23.0865   25.1405    0.2153 H         1 UNK         0.0719 
     91 H91        22.6991   27.5329   -0.3719 H         1 UNK         0.0809 
     92 H92        24.2751   27.6187   -1.1507 H         1 UNK         0.0809 
     93 H93        23.0089   26.5937   -1.8214 H         1 UNK         0.0809 
     94 H94        25.8467   25.3985   -0.9027 H         1 UNK         0.2990 
     95 H95        26.1943   22.5275   -1.8954 H         1 UNK         0.0690 
     96 H96        25.9307   22.3155   -4.3820 H         1 UNK         0.0788 
     97 H97        24.5933   23.4638   -4.3343 H         1 UNK         0.0788 
     98 H98        24.4539   21.9102   -3.5261 H         1 UNK         0.0788 
     99 H99        27.7210   24.0009   -2.4504 H         1 UNK         0.2993 
    100 H100       28.4015   26.2779   -4.3308 H         1 UNK         0.0949 
    101 H101       26.9829   28.0437   -2.2714 H         1 UNK         0.0767 
    102 H102       28.4535   28.5154   -3.1294 H         1 UNK         0.0767 
    103 H103       26.9652   28.2349   -4.0156 H         1 UNK         0.0767 
    104 H104       29.8307   25.6793   -2.7634 H         1 UNK         0.3013 
    105 H105       27.6273   27.5675    0.8366 H         1 UNK         0.3121 
    106 H106       27.3925   30.3827    1.6504 H         1 UNK         0.0774 
    107 H107       28.7546   30.7606   -0.4113 H         1 UNK         0.0815 
    108 H108       28.9049   29.0257   -0.6438 H         1 UNK         0.0815 
    109 H109       27.3222   29.8048   -0.7440 H         1 UNK         0.0815 
    110 H110       28.2995   29.6011    3.7868 H         1 UNK         0.2987 
    111 H111       30.7489   28.5859    4.3345 H         1 UNK         0.0949 
    112 H112       29.0334   28.8785    6.0441 H         1 UNK         0.0806 
    113 H113       30.4695   29.7189    6.6019 H         1 UNK         0.0806 
    114 H114       29.1312   30.6376    5.9367 H         1 UNK         0.0806 
    115 H115       30.2089   31.9582    3.4977 H         1 UNK         0.3010 
    116 H116       32.6522   33.1164    4.2951 H         1 UNK         0.0829 
    117 H117       30.8280   33.8029    1.9244 H         1 UNK         0.0813 
    118 H118       32.0707   34.8556    2.5865 H         1 UNK         0.0813 
    119 H119       30.6772   34.4337    3.5659 H         1 UNK         0.0813 
    120 H120       32.0746   30.8554    1.6780 H         1 UNK         0.3038 
    121 H121       34.4915   31.4548    0.1773 H         1 UNK         0.0769 
    122 H122       32.4682   30.3738   -0.8487 H         1 UNK         0.0811 
    123 H123       32.6953   28.9677    0.1907 H         1 UNK         0.0811 
    124 H124       33.8998   29.3703   -1.0239 H         1 UNK         0.0811 
    125 H125       33.9615   29.9128    3.2268 H         1 UNK         0.3204 
    126 H126       36.6214   28.5900    3.1569 H         1 UNK         0.0748 
    127 H127       33.9479   27.2595    3.8361 H         1 UNK         0.0771 
    128 H128       35.0818   26.7885    2.5824 H         1 UNK         0.0771 
    129 H129       35.5207   26.5759    4.2680 H         1 UNK         0.0771 
    130 H130       34.2179   28.1715    5.6741 H         1 UNK         0.2980 
    131 H131       36.0108   29.1093    7.6773 H         1 UNK         0.0545 
    132 H132       33.5633   30.9371    5.9144 H         1 UNK         0.3459 
    133 H133       33.6791   32.3418    6.9623 H         1 UNK         0.3459 
    134 H134       34.0578   28.5676    9.2520 H         1 UNK         0.0616 
    135 H135       34.7078   27.2693    8.3098 H         1 UNK         0.0616 
    136 H136       33.5268   25.7198    7.1658 H         1 UNK         0.0634 
    137 H137       32.2258   25.5903    8.3229 H         1 UNK         0.0634 
@<TRIPOS>BOND
     1    1    2 1    
     2    1   72 1    
     3    1   73 1    
     4    1   74 1    
     5    2    3 2    
     6    2    4 am   BACKBONE|DICT|INTERRES
     7    4    5 1    
     8    4   75 1    
     9    5    6 1    
    10    5   35 1    
    11    5   76 1    
    12    6    7 1    
    13    6   77 1    
    14    6   78 1    
    15    7    8 1    
    16    8    9 1    
    17    8   79 1    
    18    8   80 1    
    19    9   10 ar   
    20    9   14 ar   
    21   10   11 ar   
    22   10   81 1    
    23   11   12 ar   
    24   11   71 1    
    25   12   13 ar   
    26   12   82 1    
    27   13   14 ar   
    28   13   15 1    
    29   14   83 1    
    30   15   16 1    
    31   15   84 1    
    32   15   85 1    
    33   16   17 1    
    34   17   18 1    
    35   17   86 1    
    36   17   87 1    
    37   18   19 1    
    38   18   37 1    
    39   18   88 1    
    40   19   20 am   BACKBONE|DICT|INTERRES
    41   19   89 1    
    42   20   21 2    
    43   20   22 1    
    44   22   23 1    
    45   22   24 1    
    46   22   90 1    
    47   23   91 1    
    48   23   92 1    
    49   23   93 1    
    50   24   25 am   BACKBONE|DICT|INTERRES
    51   24   94 1    
    52   25   26 2    
    53   25   27 1    
    54   27   28 1    
    55   27   29 1    
    56   27   95 1    
    57   28   96 1    
    58   28   97 1    
    59   28   98 1    
    60   29   30 am   BACKBONE|DICT|INTERRES
    61   29   99 1    
    62   30   31 2    
    63   30   32 1    
    64   32   33 1    
    65   32   34 1    
    66   32  100 1    
    67   33  101 1    
    68   33  102 1    
    69   33  103 1    
    70   34   35 am   BACKBONE|DICT|INTERRES
    71   34  104 1    
    72   35   36 2    
    73   37   38 2    
    74   37   39 am   BACKBONE|DICT|INTERRES
    75   39   40 1    
    76   39  105 1    
    77   40   41 1    
    78   40   42 1    
    79   40  106 1    
    80   41  107 1    
    81   41  108 1    
    82   41  109 1    
    83   42   43 2    
    84   42   44 am   BACKBONE|DICT|INTERRES
    85   44   45 1    
    86   44  110 1    
    87   45   46 1    
    88   45   47 1    
    89   45  111 1    
    90   46  112 1    
    91   46  113 1    
    92   46  114 1    
    93   47   48 2    
    94   47   49 am   BACKBONE|DICT|INTERRES
    95   49   50 1    
    96   49  115 1    
    97   50   51 1    
    98   50   52 1    
    99   50  116 1    
   100   51  117 1    
   101   51  118 1    
   102   51  119 1    
   103   52   53 2    
   104   52   54 am   BACKBONE|DICT|INTERRES
   105   54   55 1    
   106   54  120 1    
   107   55   56 1    
   108   55   57 1    
   109   55  121 1    
   110   56  122 1    
   111   56  123 1    
   112   56  124 1    
   113   57   58 2    
   114   57   59 am   BACKBONE|DICT|INTERRES
   115   59   60 1    
   116   59  125 1    
   117   60   61 1    
   118   60   62 1    
   119   60  126 1    
   120   61  127 1    
   121   61  128 1    
   122   61  129 1    
   123   62   63 2    
   124   62   64 am   BACKBONE|DICT|INTERRES
   125   64   65 1    
   126   64  130 1    
   127   65   66 1    
   128   65   69 1    
   129   65  131 1    
   130   66   67 am   BACKBONE|DICT|INTERRES
   131   66   68 2    
   132   67  132 1    
   133   67  133 1    
   134   69   70 1    
   135   69  134 1    
   136   69  135 1    
   137   70   71 1    
   138   71  136 1    
   139   71  137 1    
@<TRIPOS>SUBSTRUCTURE
     1 UNK         1 GROUP             0       ****    0 ROOT    
