@<TRIPOS>MOLECULE
3R136
137   139    1
SMALL
USER_CHARGES


@<TRIPOS>ATOM
      1 CA         35.0882   25.2761    0.8734 C.3       0 UNK        -0.1979 
      2 C          33.7360   24.6533    1.1837 C.2       0 UNK         0.4864 
      3 O          33.5157   24.1757    2.2972 O.2       0 UNK        -0.5359 
      4 N          32.8387   24.6435    0.1928 N.am      1 UNK        -0.4318 
      5 CA         31.5071   24.0505    0.2684 C.3       1 UNK         0.0824 
      6 C6         31.5576   22.4960    0.2907 C.3       12 UNK        -0.0944 
      7 S7         29.9230   21.6990    0.4601 S.3       12 UNK        -0.2672 
      8 C8         29.9200   21.2092    2.2123 C.3       12 UNK         0.0333 
      9 C9         29.3174   22.2878    3.0992 C.ar      12 UNK        -0.0807 
     10 C10        30.1310   23.2109    3.7653 C.ar      12 UNK        -0.0894 
     11 C11        29.5655   24.1591    4.6260 C.ar      12 UNK        -0.0804 
     12 C12        28.1807   24.1721    4.8223 C.ar      12 UNK        -0.0824 
     13 C13        27.3562   23.2833    4.1274 C.ar      12 UNK        -0.0762 
     14 C14        27.9316   22.3401    3.2726 C.ar      12 UNK        -0.0782 
     15 C15        25.8450   23.3323    4.2934 C.3       12 UNK         0.0230 
     16 S16        25.0789   24.4360    3.0621 S.3       12 UNK        -0.2608 
     17 C17        25.1166   26.0509    3.9136 C.3       12 UNK        -0.0989 
     18 CA         26.3091   26.9421    3.4898 C.3       5 UNK         0.0716 
     19 N          26.3323   27.2094    2.0532 N.am      5 UNK        -0.4135 
     20 C          27.3038   27.8618    1.4026 C.2       4 UNK         0.5031 
     21 O          28.2680   28.3894    1.9598 O.2       4 UNK        -0.5229 
     22 CA         27.1921   27.8697   -0.1312 C.3       4 UNK         0.0329 
     23 CB         28.3054   28.6885   -0.8101 C.3       4 UNK        -0.2001 
     24 N          27.2357   26.4967   -0.6369 N.am      4 UNK        -0.4303 
     25 C          26.1753   25.6816   -0.7455 C.2       3 UNK         0.5044 
     26 O          25.0343   26.0325   -0.4389 O.2       3 UNK        -0.5152 
     27 CA         26.4123   24.2311   -1.2232 C.3       3 UNK         0.0319 
     28 CB         25.2912   23.7327   -2.1592 C.3       3 UNK        -0.2001 
     29 N          27.7367   23.9938   -1.8120 N.am      3 UNK        -0.4354 
     30 C          28.2610   24.5535   -2.9149 C.2       2 UNK         0.4964 
     31 O          27.6323   25.2912   -3.6750 O.2       2 UNK        -0.5047 
     32 CA         29.7535   24.2645   -3.1912 C.3       2 UNK         0.0288 
     33 CB         30.4417   25.4155   -3.9567 C.3       2 UNK        -0.2113 
     34 N          30.5260   23.9191   -1.9861 N.am      2 UNK        -0.4145 
     35 C          30.6831   24.6622   -0.8773 C.2       1 UNK         0.5006 
     36 O          30.1961   25.7834   -0.7322 O.2       1 UNK        -0.5103 
     37 C          26.3334   28.2431    4.3122 C.2       5 UNK         0.5055 
     38 O          25.4427   29.0808    4.1534 O.2       5 UNK        -0.5220 
     39 N          27.3549   28.3661    5.1703 N.am      6 UNK        -0.4450 
     40 CA         27.6444   29.4891    6.0675 C.3       6 UNK         0.0367 
     41 CB         26.4981   29.7123    7.0776 C.3       6 UNK        -0.1929 
     42 C          28.0623   30.7904    5.3527 C.2       6 UNK         0.5070 
     43 O          28.1238   31.8324    6.0078 O.2       6 UNK        -0.5237 
     44 N          28.3821   30.7307    4.0508 N.am      7 UNK        -0.4739 
     45 CA         28.9860   31.8444    3.3192 C.3       7 UNK         0.0276 
     46 CB         28.7841   31.6472    1.8086 C.3       7 UNK        -0.1927 
     47 C          30.4794   31.9015    3.6587 C.2       7 UNK         0.5013 
     48 O          31.1676   30.8941    3.4825 O.2       7 UNK        -0.5193 
     49 N          30.9614   33.0639    4.1187 N.am      8 UNK        -0.4253 
     50 CA         32.3367   33.2773    4.5924 C.3       8 UNK         0.0242 
     51 CB         32.4799   34.7179    5.1091 C.3       8 UNK        -0.2000 
     52 C          33.4320   32.9677    3.5554 C.2       8 UNK         0.4948 
     53 O          34.5270   32.5580    3.9400 O.2       8 UNK        -0.5275 
     54 N          33.1083   33.1298    2.2654 N.am      9 UNK        -0.4246 
     55 CA         33.9717   32.7795    1.1357 C.3       9 UNK         0.0261 
     56 CB         33.3933   33.4024   -0.1458 C.3       9 UNK        -0.1959 
     57 C          34.1748   31.2623    0.9489 C.2       9 UNK         0.5033 
     58 O          35.1499   30.8749    0.3030 O.2       9 UNK        -0.5390 
     59 N          33.2649   30.4399    1.4898 N.am      10 UNK        -0.4215 
     60 CA         33.3062   28.9813    1.4126 C.3       10 UNK         0.0240 
     61 CB         31.9577   28.4560    0.8841 C.3       10 UNK        -0.1982 
     62 C          33.6348   28.3889    2.7874 C.2       10 UNK         0.4970 
     63 O          34.6727   27.7464    2.9400 O.2       10 UNK        -0.4916 
     64 N          32.7440   28.6135    3.7571 N.am      11 UNK        -0.4279 
     65 CA         32.7896   28.0216    5.1005 C.3       11 UNK         0.1003 
     66 C          33.7053   28.7783    6.1050 C.2       11 UNK         0.5709 
     67 N          34.2897   29.9186    5.7572 N.am      11 UNK        -0.7358 
     68 O          33.9014   28.3121    7.2248 O.2       11 UNK        -0.4999 
     69 C69        31.3610   27.8218    5.6735 C.3       12 UNK        -0.0954 
     70 S70        30.2939   26.8172    4.5844 S.3       12 UNK        -0.2268 
     71 C71        30.4414   25.1730    5.3474 C.3       12 UNK         0.0203 
     72 H72        34.9738   26.2078    0.3197 H         1 UNK         0.0888 
     73 H73        35.6295   25.4962    1.7933 H         1 UNK         0.0888 
     74 H74        35.6935   24.5907    0.2808 H         1 UNK         0.0888 
     75 H75        33.0630   25.0797   -0.6917 H         1 UNK         0.3017 
     76 H76        31.0414   24.3900    1.1966 H         1 UNK         0.0873 
     77 H77        32.0391   22.1095   -0.6090 H         1 UNK         0.0745 
     78 H78        32.1934   22.1611    1.1105 H         1 UNK         0.0745 
     79 H79        30.9259   20.9509    2.5459 H         1 UNK         0.0705 
     80 H80        29.3347   20.2936    2.3107 H         1 UNK         0.0705 
     81 H81        31.2028   23.1876    3.6179 H         1 UNK         0.1334 
     82 H82        27.7428   24.8947    5.4968 H         1 UNK         0.1417 
     83 H83        27.2990   21.6407    2.7424 H         1 UNK         0.1562 
     84 H84        25.5763   23.6365    5.3059 H         1 UNK         0.0748 
     85 H85        25.4303   22.3312    4.1650 H         1 UNK         0.0748 
     86 H86        25.1237   25.8874    4.9929 H         1 UNK         0.0940 
     87 H87        24.1740   26.5594    3.7002 H         1 UNK         0.0940 
     88 H88        27.2292   26.3967    3.6965 H         1 UNK         0.0703 
     89 H89        25.5904   26.7909    1.5049 H         1 UNK         0.3081 
     90 H90        26.2363   28.3284   -0.3933 H         1 UNK         0.0719 
     91 H91        29.2966   28.3177   -0.5481 H         1 UNK         0.0809 
     92 H92        28.2142   28.6583   -1.8959 H         1 UNK         0.0809 
     93 H93        28.2571   29.7351   -0.5094 H         1 UNK         0.0809 
     94 H94        28.1609   26.1325   -0.8404 H         1 UNK         0.2990 
     95 H95        26.3787   23.6193   -0.3202 H         1 UNK         0.0690 
     96 H96        25.4625   22.7023   -2.4705 H         1 UNK         0.0788 
     97 H97        25.2083   24.3463   -3.0566 H         1 UNK         0.0788 
     98 H98        24.3224   23.7605   -1.6587 H         1 UNK         0.0788 
     99 H99        28.3451   23.3984   -1.2664 H         1 UNK         0.2993 
    100 H100       29.7719   23.3820   -3.8326 H         1 UNK         0.0949 
    101 H101       29.9637   25.5874   -4.9220 H         1 UNK         0.0767 
    102 H102       30.3981   26.3532   -3.4013 H         1 UNK         0.0767 
    103 H103       31.4900   25.1905   -4.1533 H         1 UNK         0.0767 
    104 H104       30.9437   22.9984   -1.9911 H         1 UNK         0.3013 
    105 H105       28.0679   27.6473    5.1542 H         1 UNK         0.3121 
    106 H106       28.5199   29.1821    6.6412 H         1 UNK         0.0774 
    107 H107       26.7905   30.4252    7.8496 H         1 UNK         0.0815 
    108 H108       25.6036   30.1089    6.5968 H         1 UNK         0.0815 
    109 H109       26.2266   28.7856    7.5828 H         1 UNK         0.0815 
    110 H110       28.3503   29.8389    3.5674 H         1 UNK         0.2987 
    111 H111       28.4995   32.7769    3.6140 H         1 UNK         0.0949 
    112 H112       29.3258   30.7753    1.4399 H         1 UNK         0.0806 
    113 H113       27.7306   31.5152    1.5616 H         1 UNK         0.0806 
    114 H114       29.1449   32.5119    1.2508 H         1 UNK         0.0806 
    115 H115       30.3241   33.8397    4.2308 H         1 UNK         0.3010 
    116 H116       32.4948   32.5972    5.4324 H         1 UNK         0.0829 
    117 H117       33.4863   34.8978    5.4904 H         1 UNK         0.0813 
    118 H118       32.2942   35.4501    4.3222 H         1 UNK         0.0813 
    119 H119       31.7869   34.9182    5.9265 H         1 UNK         0.0813 
    120 H120       32.1867   33.4788    2.0456 H         1 UNK         0.3038 
    121 H121       34.9555   33.2185    1.3154 H         1 UNK         0.0769 
    122 H122       34.0310   33.1898   -1.0052 H         1 UNK         0.0811 
    123 H123       33.3179   34.4867   -0.0624 H         1 UNK         0.0811 
    124 H124       32.4007   33.0112   -0.3730 H         1 UNK         0.0811 
    125 H125       32.5232   30.8335    2.0614 H         1 UNK         0.3204 
    126 H126       34.0834   28.6525    0.7197 H         1 UNK         0.0748 
    127 H127       31.9297   27.3659    0.8909 H         1 UNK         0.0771 
    128 H128       31.1138   28.8021    1.4830 H         1 UNK         0.0771 
    129 H129       31.7866   28.7765   -0.1434 H         1 UNK         0.0771 
    130 H130       31.9630   29.2403    3.5801 H         1 UNK         0.2980 
    131 H131       33.2312   27.0277    5.0052 H         1 UNK         0.0545 
    132 H132       34.1520   30.3154    4.8406 H         1 UNK         0.3459 
    133 H133       34.8856   30.3872    6.4205 H         1 UNK         0.3459 
    134 H134       31.3973   27.3552    6.6595 H         1 UNK         0.0616 
    135 H135       30.8783   28.7907    5.8128 H         1 UNK         0.0616 
    136 H136       30.1482   25.2285    6.3968 H         1 UNK         0.0634 
    137 H137       31.4874   24.8625    5.3287 H         1 UNK         0.0634 
@<TRIPOS>BOND
     1    1    2 1    
     2    1   72 1    
     3    1   73 1    
     4    1   74 1    
     5    2    3 2    
     6    2    4 am   BACKBONE|DICT|INTERRES
     7    4    5 1    
     8    4   75 1    
     9    5    6 1    
    10    5   35 1    
    11    5   76 1    
    12    6    7 1    
    13    6   77 1    
    14    6   78 1    
    15    7    8 1    
    16    8    9 1    
    17    8   79 1    
    18    8   80 1    
    19    9   10 ar   
    20    9   14 ar   
    21   10   11 ar   
    22   10   81 1    
    23   11   12 ar   
    24   11   71 1    
    25   12   13 ar   
    26   12   82 1    
    27   13   14 ar   
    28   13   15 1    
    29   14   83 1    
    30   15   16 1    
    31   15   84 1    
    32   15   85 1    
    33   16   17 1    
    34   17   18 1    
    35   17   86 1    
    36   17   87 1    
    37   18   19 1    
    38   18   37 1    
    39   18   88 1    
    40   19   20 am   BACKBONE|DICT|INTERRES
    41   19   89 1    
    42   20   21 2    
    43   20   22 1    
    44   22   23 1    
    45   22   24 1    
    46   22   90 1    
    47   23   91 1    
    48   23   92 1    
    49   23   93 1    
    50   24   25 am   BACKBONE|DICT|INTERRES
    51   24   94 1    
    52   25   26 2    
    53   25   27 1    
    54   27   28 1    
    55   27   29 1    
    56   27   95 1    
    57   28   96 1    
    58   28   97 1    
    59   28   98 1    
    60   29   30 am   BACKBONE|DICT|INTERRES
    61   29   99 1    
    62   30   31 2    
    63   30   32 1    
    64   32   33 1    
    65   32   34 1    
    66   32  100 1    
    67   33  101 1    
    68   33  102 1    
    69   33  103 1    
    70   34   35 am   BACKBONE|DICT|INTERRES
    71   34  104 1    
    72   35   36 2    
    73   37   38 2    
    74   37   39 am   BACKBONE|DICT|INTERRES
    75   39   40 1    
    76   39  105 1    
    77   40   41 1    
    78   40   42 1    
    79   40  106 1    
    80   41  107 1    
    81   41  108 1    
    82   41  109 1    
    83   42   43 2    
    84   42   44 am   BACKBONE|DICT|INTERRES
    85   44   45 1    
    86   44  110 1    
    87   45   46 1    
    88   45   47 1    
    89   45  111 1    
    90   46  112 1    
    91   46  113 1    
    92   46  114 1    
    93   47   48 2    
    94   47   49 am   BACKBONE|DICT|INTERRES
    95   49   50 1    
    96   49  115 1    
    97   50   51 1    
    98   50   52 1    
    99   50  116 1    
   100   51  117 1    
   101   51  118 1    
   102   51  119 1    
   103   52   53 2    
   104   52   54 am   BACKBONE|DICT|INTERRES
   105   54   55 1    
   106   54  120 1    
   107   55   56 1    
   108   55   57 1    
   109   55  121 1    
   110   56  122 1    
   111   56  123 1    
   112   56  124 1    
   113   57   58 2    
   114   57   59 am   BACKBONE|DICT|INTERRES
   115   59   60 1    
   116   59  125 1    
   117   60   61 1    
   118   60   62 1    
   119   60  126 1    
   120   61  127 1    
   121   61  128 1    
   122   61  129 1    
   123   62   63 2    
   124   62   64 am   BACKBONE|DICT|INTERRES
   125   64   65 1    
   126   64  130 1    
   127   65   66 1    
   128   65   69 1    
   129   65  131 1    
   130   66   67 am   BACKBONE|DICT|INTERRES
   131   66   68 2    
   132   67  132 1    
   133   67  133 1    
   134   69   70 1    
   135   69  134 1    
   136   69  135 1    
   137   70   71 1    
   138   71  136 1    
   139   71  137 1    
@<TRIPOS>SUBSTRUCTURE
     1 UNK         1 GROUP             0       ****    0 ROOT    
