@<TRIPOS>MOLECULE
3R136
137   139    1
SMALL
USER_CHARGES


@<TRIPOS>ATOM
      1 CA         30.0999   22.0052   -4.1262 C.3       0 UNK        -0.1979 
      2 C          29.6127   22.9310   -3.0224 C.2       0 UNK         0.4864 
      3 O          28.8085   23.8254   -3.2852 O.2       0 UNK        -0.5359 
      4 N          30.0776   22.7156   -1.7823 N.am      1 UNK        -0.4318 
      5 CA         29.7498   23.5281   -0.6012 C.3       1 UNK         0.0824 
      6 C6         30.6118   23.1261    0.6186 C.3       12 UNK        -0.0944 
      7 S7         30.7241   24.4704    1.8427 S.3       12 UNK        -0.2672 
      8 C8         30.0346   23.6601    3.3148 C.3       12 UNK         0.0333 
      9 C9         29.7906   24.6745    4.4187 C.ar      12 UNK        -0.0807 
     10 C10        30.8591   25.1692    5.1718 C.ar      12 UNK        -0.0894 
     11 C11        30.6387   26.1162    6.1757 C.ar      12 UNK        -0.0804 
     12 C12        29.3392   26.5748    6.4151 C.ar      12 UNK        -0.0824 
     13 C13        28.2598   26.0893    5.6683 C.ar      12 UNK        -0.0762 
     14 C14        28.4943   25.1236    4.6828 C.ar      12 UNK        -0.0782 
     15 C15        26.8518   26.6098    5.9578 C.3       12 UNK         0.0230 
     16 S16        25.7831   26.7890    4.4844 S.3       12 UNK        -0.2608 
     17 C17        26.7670   27.9086    3.4311 C.3       12 UNK        -0.0989 
     18 CA         27.0854   27.2709    2.0483 C.3       5 UNK         0.0716 
     19 N          25.8935   27.0035    1.2308 N.am      5 UNK        -0.4135 
     20 C          25.0274   27.9139    0.7570 C.2       4 UNK         0.5031 
     21 O          25.1170   29.1260    0.9626 O.2       4 UNK        -0.5229 
     22 CA         23.8460   27.3724   -0.0737 C.3       4 UNK         0.0329 
     23 CB         23.0316   28.4888   -0.7631 C.3       4 UNK        -0.2001 
     24 N          24.2305   26.3461   -1.0487 N.am      4 UNK        -0.4303 
     25 C          25.0965   26.4533   -2.0666 C.2       3 UNK         0.5044 
     26 O          25.7605   27.4630   -2.3059 O.2       3 UNK        -0.5152 
     27 CA         25.2376   25.2012   -2.9590 C.3       3 UNK         0.0319 
     28 CB         26.0580   25.4750   -4.2328 C.3       3 UNK        -0.2001 
     29 N          25.8424   24.0811   -2.2330 N.am      3 UNK        -0.4354 
     30 C          25.2372   23.3594   -1.2756 C.2       2 UNK         0.4964 
     31 O          24.0501   23.5004   -0.9766 O.2       2 UNK        -0.5047 
     32 CA         26.0745   22.3291   -0.4914 C.3       2 UNK         0.0288 
     33 CB         25.6892   20.8991   -0.9048 C.3       2 UNK        -0.2113 
     34 N          27.5254   22.4835   -0.6202 N.am      2 UNK        -0.4145 
     35 C          28.2416   23.5613   -0.2665 C.2       1 UNK         0.5006 
     36 O          27.7536   24.5731    0.2430 O.2       1 UNK        -0.5103 
     37 C          28.1121   28.0875    1.2428 C.2       5 UNK         0.5055 
     38 O          28.4078   29.2306    1.5922 O.2       5 UNK        -0.5220 
     39 N          28.6336   27.4932    0.1602 N.am      6 UNK        -0.4450 
     40 CA         29.5433   28.1645   -0.7799 C.3       6 UNK         0.0367 
     41 CB         29.7867   27.2723   -2.0078 C.3       6 UNK        -0.1929 
     42 C          30.8820   28.6174   -0.1595 C.2       6 UNK         0.5070 
     43 O          31.5059   29.5368   -0.6893 O.2       6 UNK        -0.5237 
     44 N          31.2910   27.9872    0.9505 N.am      7 UNK        -0.4739 
     45 CA         32.4832   28.3412    1.7239 C.3       7 UNK         0.0276 
     46 CB         33.0540   27.0722    2.3794 C.3       7 UNK        -0.1927 
     47 C          32.2361   29.4252    2.7904 C.2       7 UNK         0.5013 
     48 O          33.1770   29.7352    3.5214 O.2       7 UNK        -0.5193 
     49 N          31.0138   29.9757    2.9014 N.am      8 UNK        -0.4253 
     50 CA         30.6455   30.9909    3.9000 C.3       8 UNK         0.0242 
     51 CB         29.1963   31.4529    3.6831 C.3       8 UNK        -0.2000 
     52 C          31.5985   32.2006    3.9124 C.2       8 UNK         0.4948 
     53 O          31.9255   32.7323    2.8497 O.2       8 UNK        -0.5275 
     54 N          32.0459   32.5678    5.1210 N.am      9 UNK        -0.4246 
     55 CA         33.0727   33.5663    5.4540 C.3       9 UNK         0.0261 
     56 CB         32.7708   34.9474    4.8345 C.3       9 UNK        -0.1959 
     57 C          34.5252   33.1186    5.1829 C.2       9 UNK         0.5033 
     58 O          35.4380   33.7998    5.6531 O.2       9 UNK        -0.5390 
     59 N          34.7366   31.9871    4.4939 N.am      10 UNK        -0.4215 
     60 CA         36.0449   31.3457    4.3138 C.3       10 UNK         0.0240 
     61 CB         36.2298   30.9758    2.8307 C.3       10 UNK        -0.1982 
     62 C          36.2115   30.1084    5.2196 C.2       10 UNK         0.4970 
     63 O          37.2896   29.5121    5.2154 O.2       10 UNK        -0.4916 
     64 N          35.1608   29.7444    5.9700 N.am      11 UNK        -0.4279 
     65 CA         35.1104   28.6507    6.9519 C.3       11 UNK         0.1003 
     66 C          36.2233   28.7463    8.0332 C.2       11 UNK         0.5709 
     67 N          36.8178   27.6241    8.4152 N.am      11 UNK        -0.7358 
     68 O          36.5152   29.8192    8.5593 O.2       11 UNK        -0.4999 
     69 C69        33.7179   28.5844    7.6352 C.3       12 UNK        -0.0954 
     70 S70        32.3536   28.2692    6.4649 S.3       12 UNK        -0.2268 
     71 C71        31.7988   26.6284    7.0160 C.3       12 UNK         0.0203 
     72 H72        30.6062   22.5813   -4.9002 H         1 UNK         0.0888 
     73 H73        30.7952   21.2540   -3.7523 H         1 UNK         0.0888 
     74 H74        29.2553   21.4898   -4.5826 H         1 UNK         0.0888 
     75 H75        30.7323   21.9613   -1.6286 H         1 UNK         0.3017 
     76 H76        30.0192   24.5481   -0.8684 H         1 UNK         0.0873 
     77 H77        31.6340   22.9136    0.3010 H         1 UNK         0.0745 
     78 H78        30.2456   22.2061    1.0785 H         1 UNK         0.0745 
     79 H79        30.7227   22.8881    3.6624 H         1 UNK         0.0705 
     80 H80        29.1042   23.1552    3.0495 H         1 UNK         0.0705 
     81 H81        31.8624   24.8183    4.9713 H         1 UNK         0.1334 
     82 H82        29.1716   27.3117    7.1890 H         1 UNK         0.1417 
     83 H83        27.6677   24.7290    4.1082 H         1 UNK         0.1562 
     84 H84        26.9032   27.5789    6.4568 H         1 UNK         0.0748 
     85 H85        26.3674   25.9283    6.6580 H         1 UNK         0.0748 
     86 H86        27.6922   28.1645    3.9507 H         1 UNK         0.0940 
     87 H87        26.2271   28.8499    3.3185 H         1 UNK         0.0940 
     88 H88        27.5560   26.3053    2.2342 H         1 UNK         0.0703 
     89 H89        25.7599   26.0361    0.9724 H         1 UNK         0.3081 
     90 H90        23.1831   26.8791    0.6388 H         1 UNK         0.0719 
     91 H91        23.6414   29.0583   -1.4655 H         1 UNK         0.0809 
     92 H92        22.1820   28.0807   -1.3105 H         1 UNK         0.0809 
     93 H93        22.6346   29.1935   -0.0314 H         1 UNK         0.0809 
     94 H94        23.8016   25.4329   -0.9220 H         1 UNK         0.2990 
     95 H95        24.2331   24.9085   -3.2721 H         1 UNK         0.0690 
     96 H96        26.1168   24.5897   -4.8661 H         1 UNK         0.0788 
     97 H97        27.0770   25.7853   -3.9982 H         1 UNK         0.0788 
     98 H98        25.6041   26.2698   -4.8261 H         1 UNK         0.0788 
     99 H99        26.8259   23.9166   -2.4182 H         1 UNK         0.2993 
    100 H100       25.8266   22.4612    0.5639 H         1 UNK         0.0949 
    101 H101       26.1976   20.1563   -0.2897 H         1 UNK         0.0767 
    102 H102       24.6172   20.7325   -0.7878 H         1 UNK         0.0767 
    103 H103       25.9376   20.7005   -1.9483 H         1 UNK         0.0767 
    104 H104       28.0196   21.7161   -1.0517 H         1 UNK         0.3013 
    105 H105       28.3474   26.5428   -0.0511 H         1 UNK         0.3121 
    106 H106       29.0271   29.0642   -1.1220 H         1 UNK         0.0774 
    107 H107       30.2135   27.8572   -2.8232 H         1 UNK         0.0815 
    108 H108       30.4936   26.4722   -1.7953 H         1 UNK         0.0815 
    109 H109       28.8628   26.8274   -2.3792 H         1 UNK         0.0815 
    110 H110       30.7220   27.2354    1.3147 H         1 UNK         0.2987 
    111 H111       33.2433   28.7357    1.0461 H         1 UNK         0.0949 
    112 H112       32.3711   26.6674    3.1267 H         1 UNK         0.0806 
    113 H113       33.2513   26.2947    1.6414 H         1 UNK         0.0806 
    114 H114       33.9972   27.2815    2.8860 H         1 UNK         0.0806 
    115 H115       30.2790   29.6796    2.2672 H         1 UNK         0.3010 
    116 H116       30.6979   30.4987    4.8733 H         1 UNK         0.0829 
    117 H117       28.4923   30.6364    3.8411 H         1 UNK         0.0813 
    118 H118       28.9260   32.2466    4.3809 H         1 UNK         0.0813 
    119 H119       29.0451   31.8383    2.6739 H         1 UNK         0.0813 
    120 H120       31.6957   32.0519    5.9173 H         1 UNK         0.3038 
    121 H121       33.0055   33.6853    6.5366 H         1 UNK         0.0769 
    122 H122       33.4351   35.7090    5.2450 H         1 UNK         0.0811 
    123 H123       31.7489   35.2635    5.0433 H         1 UNK         0.0811 
    124 H124       32.9121   34.9518    3.7536 H         1 UNK         0.0811 
    125 H125       33.9458   31.4678    4.1205 H         1 UNK         0.3204 
    126 H126       36.8441   32.0395    4.5818 H         1 UNK         0.0748 
    127 H127       37.2283   30.5753    2.6507 H         1 UNK         0.0771 
    128 H128       35.5157   30.2197    2.5050 H         1 UNK         0.0771 
    129 H129       36.1112   31.8479    2.1876 H         1 UNK         0.0771 
    130 H130       34.3039   30.2630    5.8630 H         1 UNK         0.2980 
    131 H131       35.2623   27.7251    6.3936 H         1 UNK         0.0545 
    132 H132       36.5769   26.7377    7.9999 H         1 UNK         0.3459 
    133 H133       37.5299   27.6657    9.1276 H         1 UNK         0.3459 
    134 H134       33.7082   27.8086    8.4033 H         1 UNK         0.0616 
    135 H135       33.5048   29.5205    8.1548 H         1 UNK         0.0616 
    136 H136       32.6385   25.9330    6.9712 H         1 UNK         0.0634 
    137 H137       31.4954   26.6825    8.0626 H         1 UNK         0.0634 
@<TRIPOS>BOND
     1    1    2 1    
     2    1   72 1    
     3    1   73 1    
     4    1   74 1    
     5    2    3 2    
     6    2    4 am   BACKBONE|DICT|INTERRES
     7    4    5 1    
     8    4   75 1    
     9    5    6 1    
    10    5   35 1    
    11    5   76 1    
    12    6    7 1    
    13    6   77 1    
    14    6   78 1    
    15    7    8 1    
    16    8    9 1    
    17    8   79 1    
    18    8   80 1    
    19    9   10 ar   
    20    9   14 ar   
    21   10   11 ar   
    22   10   81 1    
    23   11   12 ar   
    24   11   71 1    
    25   12   13 ar   
    26   12   82 1    
    27   13   14 ar   
    28   13   15 1    
    29   14   83 1    
    30   15   16 1    
    31   15   84 1    
    32   15   85 1    
    33   16   17 1    
    34   17   18 1    
    35   17   86 1    
    36   17   87 1    
    37   18   19 1    
    38   18   37 1    
    39   18   88 1    
    40   19   20 am   BACKBONE|DICT|INTERRES
    41   19   89 1    
    42   20   21 2    
    43   20   22 1    
    44   22   23 1    
    45   22   24 1    
    46   22   90 1    
    47   23   91 1    
    48   23   92 1    
    49   23   93 1    
    50   24   25 am   BACKBONE|DICT|INTERRES
    51   24   94 1    
    52   25   26 2    
    53   25   27 1    
    54   27   28 1    
    55   27   29 1    
    56   27   95 1    
    57   28   96 1    
    58   28   97 1    
    59   28   98 1    
    60   29   30 am   BACKBONE|DICT|INTERRES
    61   29   99 1    
    62   30   31 2    
    63   30   32 1    
    64   32   33 1    
    65   32   34 1    
    66   32  100 1    
    67   33  101 1    
    68   33  102 1    
    69   33  103 1    
    70   34   35 am   BACKBONE|DICT|INTERRES
    71   34  104 1    
    72   35   36 2    
    73   37   38 2    
    74   37   39 am   BACKBONE|DICT|INTERRES
    75   39   40 1    
    76   39  105 1    
    77   40   41 1    
    78   40   42 1    
    79   40  106 1    
    80   41  107 1    
    81   41  108 1    
    82   41  109 1    
    83   42   43 2    
    84   42   44 am   BACKBONE|DICT|INTERRES
    85   44   45 1    
    86   44  110 1    
    87   45   46 1    
    88   45   47 1    
    89   45  111 1    
    90   46  112 1    
    91   46  113 1    
    92   46  114 1    
    93   47   48 2    
    94   47   49 am   BACKBONE|DICT|INTERRES
    95   49   50 1    
    96   49  115 1    
    97   50   51 1    
    98   50   52 1    
    99   50  116 1    
   100   51  117 1    
   101   51  118 1    
   102   51  119 1    
   103   52   53 2    
   104   52   54 am   BACKBONE|DICT|INTERRES
   105   54   55 1    
   106   54  120 1    
   107   55   56 1    
   108   55   57 1    
   109   55  121 1    
   110   56  122 1    
   111   56  123 1    
   112   56  124 1    
   113   57   58 2    
   114   57   59 am   BACKBONE|DICT|INTERRES
   115   59   60 1    
   116   59  125 1    
   117   60   61 1    
   118   60   62 1    
   119   60  126 1    
   120   61  127 1    
   121   61  128 1    
   122   61  129 1    
   123   62   63 2    
   124   62   64 am   BACKBONE|DICT|INTERRES
   125   64   65 1    
   126   64  130 1    
   127   65   66 1    
   128   65   69 1    
   129   65  131 1    
   130   66   67 am   BACKBONE|DICT|INTERRES
   131   66   68 2    
   132   67  132 1    
   133   67  133 1    
   134   69   70 1    
   135   69  134 1    
   136   69  135 1    
   137   70   71 1    
   138   71  136 1    
   139   71  137 1    
@<TRIPOS>SUBSTRUCTURE
     1 UNK         1 GROUP             0       ****    0 ROOT    
