@<TRIPOS>MOLECULE
3R136
137   139    1
SMALL
USER_CHARGES


@<TRIPOS>ATOM
      1 CA         32.0533   24.8871   -2.3151 C.3       0 UNK        -0.1979 
      2 C          31.0992   24.1379   -1.3975 C.2       0 UNK         0.4864 
      3 O          29.9596   23.8800   -1.7886 O.2       0 UNK        -0.5359 
      4 N          31.5543   23.8039   -0.1791 N.am      1 UNK        -0.4318 
      5 CA         30.8079   23.1084    0.8788 C.3       1 UNK         0.0824 
      6 C6         30.6528   21.5815    0.5741 C.3       12 UNK        -0.0944 
      7 S7         29.6034   20.5696    1.6877 S.3       12 UNK        -0.2672 
      8 C8         30.6179   20.3755    3.1883 C.3       12 UNK         0.0333 
      9 C9         30.7654   21.6787    3.9629 C.ar      12 UNK        -0.0807 
     10 C10        32.0367   22.2063    4.1973 C.ar      12 UNK        -0.0894 
     11 C11        32.1927   23.4302    4.8556 C.ar      12 UNK        -0.0804 
     12 C12        31.0586   24.1036    5.3248 C.ar      12 UNK        -0.0824 
     13 C13        29.7784   23.5748    5.1220 C.ar      12 UNK        -0.0762 
     14 C14        29.6403   22.3615    4.4391 C.ar      12 UNK        -0.0782 
     15 C15        28.5439   24.2853    5.6686 C.3       12 UNK         0.0230 
     16 S16        27.8437   25.4966    4.4981 S.3       12 UNK        -0.2608 
     17 C17        28.7718   26.9964    4.9454 C.3       12 UNK        -0.0989 
     18 CA         28.7006   28.1600    3.9276 C.3       5 UNK         0.0716 
     19 N          29.2451   27.8334    2.6068 N.am      5 UNK        -0.4135 
     20 C          29.7367   28.7663    1.7768 C.2       4 UNK         0.5031 
     21 O          29.7849   29.9668    2.0523 O.2       4 UNK        -0.5229 
     22 CA         30.2297   28.2977    0.4016 C.3       4 UNK         0.0329 
     23 CB         31.6114   27.6303    0.4970 C.3       4 UNK        -0.2001 
     24 N          29.2768   27.3934   -0.2393 N.am      4 UNK        -0.4303 
     25 C          28.1001   27.7803   -0.7516 C.2       3 UNK         0.5044 
     26 O          27.6878   28.9391   -0.7246 O.2       3 UNK        -0.5152 
     27 CA         27.2243   26.6870   -1.3842 C.3       3 UNK         0.0319 
     28 CB         27.6191   26.4593   -2.8517 C.3       3 UNK        -0.2001 
     29 N          27.2881   25.4188   -0.6570 N.am      3 UNK        -0.4354 
     30 C          26.8061   25.2435    0.5818 C.2       2 UNK         0.4964 
     31 O          26.2521   26.1261    1.2327 O.2       2 UNK        -0.5047 
     32 CA         27.0224   23.8671    1.2239 C.3       2 UNK         0.0288 
     33 CB         25.9524   22.8712    0.7501 C.3       2 UNK        -0.2113 
     34 N          28.3503   23.3085    0.9756 N.am      2 UNK        -0.4145 
     35 C          29.5265   23.9011    1.2234 C.2       1 UNK         0.5006 
     36 O          29.6421   25.0492    1.6605 O.2       1 UNK        -0.5103 
     37 C          27.3294   28.8655    3.8612 C.2       5 UNK         0.5055 
     38 O          27.0852   29.7386    4.6950 O.2       5 UNK        -0.5220 
     39 N          26.4921   28.5648    2.8532 N.am      6 UNK        -0.4450 
     40 CA         25.2529   29.3081    2.5773 C.3       6 UNK         0.0367 
     41 CB         24.4087   28.5800    1.5204 C.3       6 UNK        -0.1929 
     42 C          25.5081   30.7615    2.1401 C.2       6 UNK         0.5070 
     43 O          24.7483   31.6503    2.5248 O.2       6 UNK        -0.5237 
     44 N          26.5871   30.9860    1.3767 N.am      7 UNK        -0.4739 
     45 CA         27.0667   32.3147    0.9815 C.3       7 UNK         0.0276 
     46 CB         27.9862   32.1686   -0.2428 C.3       7 UNK        -0.1927 
     47 C          27.7971   33.0680    2.1111 C.2       7 UNK         0.5013 
     48 O          28.1044   34.2473    1.9327 O.2       7 UNK        -0.5193 
     49 N          28.0782   32.3799    3.2294 N.am      8 UNK        -0.4253 
     50 CA         28.8555   32.8292    4.3900 C.3       8 UNK         0.0242 
     51 CB         28.1304   33.9688    5.1371 C.3       8 UNK        -0.2000 
     52 C          30.3153   33.1699    4.0289 C.2       8 UNK         0.4948 
     53 O          30.8822   34.1176    4.5763 O.2       8 UNK        -0.5275 
     54 N          30.8979   32.3817    3.1176 N.am      9 UNK        -0.4246 
     55 CA         32.2646   32.5177    2.6181 C.3       9 UNK         0.0261 
     56 CB         32.2255   33.1491    1.2131 C.3       9 UNK        -0.1959 
     57 C          32.9472   31.1417    2.6399 C.2       9 UNK         0.5033 
     58 O          33.5718   30.7440    1.6551 O.2       9 UNK        -0.5390 
     59 N          32.7763   30.4191    3.7552 N.am      10 UNK        -0.4215 
     60 CA         33.2874   29.0646    3.9570 C.3       10 UNK         0.0240 
     61 CB         32.5681   28.4406    5.1646 C.3       10 UNK        -0.1982 
     62 C          34.8150   29.0398    4.1807 C.2       10 UNK         0.4970 
     63 O          35.3557   30.0228    4.6898 O.2       10 UNK        -0.4916 
     64 N          35.5150   27.9336    3.8919 N.am      11 UNK        -0.4279 
     65 CA         35.0608   26.7372    3.1647 C.3       11 UNK         0.1003 
     66 C          35.3076   26.8605    1.6306 C.2       11 UNK         0.5709 
     67 N          34.9404   25.8475    0.8590 N.am      11 UNK        -0.7358 
     68 O          35.8267   27.8565    1.1310 O.2       11 UNK        -0.4999 
     69 C69        35.6678   25.4495    3.7883 C.3       12 UNK        -0.0954 
     70 S70        34.5814   24.0051    3.5412 S.3       12 UNK        -0.2268 
     71 C71        33.5823   24.0230    5.0684 C.3       12 UNK         0.0203 
     72 H72        32.2627   24.2913   -3.2029 H         1 UNK         0.0888 
     73 H73        31.6047   25.8274   -2.6345 H         1 UNK         0.0888 
     74 H74        33.0003   25.1123   -1.8253 H         1 UNK         0.0888 
     75 H75        32.4934   24.0730    0.0745 H         1 UNK         0.3017 
     76 H76        31.4340   23.1993    1.7644 H         1 UNK         0.0873 
     77 H77        31.6421   21.1227    0.5416 H         1 UNK         0.0745 
     78 H78        30.2461   21.4519   -0.4302 H         1 UNK         0.0745 
     79 H79        31.5905   19.9665    2.9099 H         1 UNK         0.0705 
     80 H80        30.1471   19.6349    3.8361 H         1 UNK         0.0705 
     81 H81        32.9097   21.6771    3.8402 H         1 UNK         0.1334 
     82 H82        31.1736   25.0368    5.8576 H         1 UNK         0.1417 
     83 H83        28.6544   21.9506    4.2679 H         1 UNK         0.1562 
     84 H84        28.7771   24.7755    6.6150 H         1 UNK         0.0748 
     85 H85        27.7728   23.5489    5.8996 H         1 UNK         0.0748 
     86 H86        29.8163   26.7178    5.0777 H         1 UNK         0.0940 
     87 H87        28.4312   27.3330    5.9266 H         1 UNK         0.0940 
     88 H88        29.3630   28.9233    4.3413 H         1 UNK         0.0703 
     89 H89        29.2441   26.8543    2.3284 H         1 UNK         0.3081 
     90 H90        30.3314   29.1817   -0.2320 H         1 UNK         0.0719 
     91 H91        31.9515   27.2809   -0.4771 H         1 UNK         0.0809 
     92 H92        32.3563   28.3425    0.8514 H         1 UNK         0.0809 
     93 H93        31.6159   26.7807    1.1805 H         1 UNK         0.0809 
     94 H94        29.4916   26.4060   -0.2138 H         1 UNK         0.2990 
     95 H95        26.1900   27.0369   -1.3603 H         1 UNK         0.0690 
     96 H96        27.5561   27.3881   -3.4206 H         1 UNK         0.0788 
     97 H97        26.9570   25.7396   -3.3334 H         1 UNK         0.0788 
     98 H98        28.6408   26.0887   -2.9438 H         1 UNK         0.0788 
     99 H99        27.7844   24.6558   -1.1007 H         1 UNK         0.2993 
    100 H100       26.9165   23.9846    2.3020 H         1 UNK         0.0949 
    101 H101       24.9497   23.2570    0.9400 H         1 UNK         0.0767 
    102 H102       26.0294   22.6723   -0.3197 H         1 UNK         0.0767 
    103 H103       26.0366   21.9196    1.2757 H         1 UNK         0.0767 
    104 H104       28.3818   22.3579    0.6332 H         1 UNK         0.3013 
    105 H105       26.7028   27.7842    2.2372 H         1 UNK         0.3121 
    106 H106       24.6737   29.3423    3.5027 H         1 UNK         0.0774 
    107 H107       24.9507   28.4650    0.5808 H         1 UNK         0.0815 
    108 H108       23.4926   29.1309    1.3034 H         1 UNK         0.0815 
    109 H109       24.1127   27.5890    1.8642 H         1 UNK         0.0815 
    110 H110       27.1317   30.1958    1.0506 H         1 UNK         0.2987 
    111 H111       26.2070   32.9232    0.6923 H         1 UNK         0.0949 
    112 H112       28.8636   31.5613   -0.0173 H         1 UNK         0.0806 
    113 H113       27.4629   31.7029   -1.0781 H         1 UNK         0.0806 
    114 H114       28.3422   33.1406   -0.5870 H         1 UNK         0.0806 
    115 H115       27.7710   31.4166    3.2643 H         1 UNK         0.3010 
    116 H116       28.9053   31.9747    5.0666 H         1 UNK         0.0829 
    117 H117       27.1059   33.6907    5.3845 H         1 UNK         0.0813 
    118 H118       28.6362   34.2054    6.0740 H         1 UNK         0.0813 
    119 H119       28.0970   34.8850    4.5469 H         1 UNK         0.0813 
    120 H120       30.3753   31.5911    2.7391 H         1 UNK         0.3038 
    121 H121       32.8492   33.1666    3.2735 H         1 UNK         0.0769 
    122 H122       31.6815   32.5200    0.5073 H         1 UNK         0.0811 
    123 H123       33.2320   33.2935    0.8187 H         1 UNK         0.0811 
    124 H124       31.7408   34.1255    1.2324 H         1 UNK         0.0811 
    125 H125       32.2852   30.8421    4.5286 H         1 UNK         0.3204 
    126 H126       33.0256   28.5108    3.0574 H         1 UNK         0.0748 
    127 H127       32.8679   27.4032    5.3127 H         1 UNK         0.0771 
    128 H128       32.7917   28.9769    6.0879 H         1 UNK         0.0771 
    129 H129       31.4894   28.4468    5.0296 H         1 UNK         0.0771 
    130 H130       36.5102   27.9637    4.0552 H         1 UNK         0.2980 
    131 H131       33.9829   26.6478    3.2826 H         1 UNK         0.0545 
    132 H132       35.1093   25.9006   -0.1326 H         1 UNK         0.3459 
    133 H133       34.5940   24.9987    1.2785 H         1 UNK         0.3459 
    134 H134       36.6539   25.2337    3.3727 H         1 UNK         0.0616 
    135 H135       35.8202   25.5735    4.8619 H         1 UNK         0.0616 
    136 H136       33.4995   25.0486    5.4296 H         1 UNK         0.0634 
    137 H137       34.1025   23.4591    5.8436 H         1 UNK         0.0634 
@<TRIPOS>BOND
     1    1    2 1    
     2    1   72 1    
     3    1   73 1    
     4    1   74 1    
     5    2    3 2    
     6    2    4 am   BACKBONE|DICT|INTERRES
     7    4    5 1    
     8    4   75 1    
     9    5    6 1    
    10    5   35 1    
    11    5   76 1    
    12    6    7 1    
    13    6   77 1    
    14    6   78 1    
    15    7    8 1    
    16    8    9 1    
    17    8   79 1    
    18    8   80 1    
    19    9   10 ar   
    20    9   14 ar   
    21   10   11 ar   
    22   10   81 1    
    23   11   12 ar   
    24   11   71 1    
    25   12   13 ar   
    26   12   82 1    
    27   13   14 ar   
    28   13   15 1    
    29   14   83 1    
    30   15   16 1    
    31   15   84 1    
    32   15   85 1    
    33   16   17 1    
    34   17   18 1    
    35   17   86 1    
    36   17   87 1    
    37   18   19 1    
    38   18   37 1    
    39   18   88 1    
    40   19   20 am   BACKBONE|DICT|INTERRES
    41   19   89 1    
    42   20   21 2    
    43   20   22 1    
    44   22   23 1    
    45   22   24 1    
    46   22   90 1    
    47   23   91 1    
    48   23   92 1    
    49   23   93 1    
    50   24   25 am   BACKBONE|DICT|INTERRES
    51   24   94 1    
    52   25   26 2    
    53   25   27 1    
    54   27   28 1    
    55   27   29 1    
    56   27   95 1    
    57   28   96 1    
    58   28   97 1    
    59   28   98 1    
    60   29   30 am   BACKBONE|DICT|INTERRES
    61   29   99 1    
    62   30   31 2    
    63   30   32 1    
    64   32   33 1    
    65   32   34 1    
    66   32  100 1    
    67   33  101 1    
    68   33  102 1    
    69   33  103 1    
    70   34   35 am   BACKBONE|DICT|INTERRES
    71   34  104 1    
    72   35   36 2    
    73   37   38 2    
    74   37   39 am   BACKBONE|DICT|INTERRES
    75   39   40 1    
    76   39  105 1    
    77   40   41 1    
    78   40   42 1    
    79   40  106 1    
    80   41  107 1    
    81   41  108 1    
    82   41  109 1    
    83   42   43 2    
    84   42   44 am   BACKBONE|DICT|INTERRES
    85   44   45 1    
    86   44  110 1    
    87   45   46 1    
    88   45   47 1    
    89   45  111 1    
    90   46  112 1    
    91   46  113 1    
    92   46  114 1    
    93   47   48 2    
    94   47   49 am   BACKBONE|DICT|INTERRES
    95   49   50 1    
    96   49  115 1    
    97   50   51 1    
    98   50   52 1    
    99   50  116 1    
   100   51  117 1    
   101   51  118 1    
   102   51  119 1    
   103   52   53 2    
   104   52   54 am   BACKBONE|DICT|INTERRES
   105   54   55 1    
   106   54  120 1    
   107   55   56 1    
   108   55   57 1    
   109   55  121 1    
   110   56  122 1    
   111   56  123 1    
   112   56  124 1    
   113   57   58 2    
   114   57   59 am   BACKBONE|DICT|INTERRES
   115   59   60 1    
   116   59  125 1    
   117   60   61 1    
   118   60   62 1    
   119   60  126 1    
   120   61  127 1    
   121   61  128 1    
   122   61  129 1    
   123   62   63 2    
   124   62   64 am   BACKBONE|DICT|INTERRES
   125   64   65 1    
   126   64  130 1    
   127   65   66 1    
   128   65   69 1    
   129   65  131 1    
   130   66   67 am   BACKBONE|DICT|INTERRES
   131   66   68 2    
   132   67  132 1    
   133   67  133 1    
   134   69   70 1    
   135   69  134 1    
   136   69  135 1    
   137   70   71 1    
   138   71  136 1    
   139   71  137 1    
@<TRIPOS>SUBSTRUCTURE
     1 UNK         1 GROUP             0       ****    0 ROOT    
