@<TRIPOS>MOLECULE
3R136
137   139    1
SMALL
USER_CHARGES


@<TRIPOS>ATOM
      1 CA         29.7018   24.0495    4.7606 C.3       0 UNK        -0.1979 
      2 C          29.8637   22.6782    4.1192 C.2       0 UNK         0.4864 
      3 O          29.7333   21.6616    4.8016 O.2       0 UNK        -0.5359 
      4 N          30.1578   22.6502    2.8136 N.am      1 UNK        -0.4318 
      5 CA         30.3378   21.4501    1.9876 C.3       1 UNK         0.0824 
      6 C6         30.9504   21.7852    0.5974 C.3       12 UNK        -0.0944 
      7 S7         30.2876   23.3170   -0.1644 S.3       12 UNK        -0.2672 
      8 C8         31.7640   24.3819   -0.1129 C.3       12 UNK         0.0333 
      9 C9         31.4014   25.8584   -0.0851 C.ar      12 UNK        -0.0807 
     10 C10        31.3875   26.5493    1.1297 C.ar      12 UNK        -0.0894 
     11 C11        31.0996   27.9167    1.1684 C.ar      12 UNK        -0.0804 
     12 C12        30.8544   28.5990   -0.0267 C.ar      12 UNK        -0.0824 
     13 C13        30.8643   27.9201   -1.2511 C.ar      12 UNK        -0.0762 
     14 C14        31.1276   26.5460   -1.2714 C.ar      12 UNK        -0.0782 
     15 C15        30.6537   28.6754   -2.5588 C.3       12 UNK         0.0230 
     16 S16        28.8986   28.7792   -3.0425 S.3       12 UNK        -0.2608 
     17 C17        28.2711   30.0224   -1.8581 C.3       12 UNK        -0.0989 
     18 CA         27.2224   29.4863   -0.8427 C.3       5 UNK         0.0716 
     19 N          27.4914   28.1086   -0.4124 N.am      5 UNK        -0.4135 
     20 C          26.5918   27.2918    0.1478 C.2       4 UNK         0.5031 
     21 O          25.4526   27.6366    0.4719 O.2       4 UNK        -0.5229 
     22 CA         27.0715   25.8562    0.4121 C.3       4 UNK         0.0329 
     23 CB         27.8484   25.7783    1.7316 C.3       4 UNK        -0.2001 
     24 N          25.9760   24.8946    0.4792 N.am      4 UNK        -0.4303 
     25 C          25.2208   24.4814   -0.5438 C.2       3 UNK         0.5044 
     26 O          25.3266   24.9043   -1.6968 O.2       3 UNK        -0.5152 
     27 CA         24.2422   23.3343   -0.2164 C.3       3 UNK         0.0319 
     28 CB         23.2645   23.0381   -1.3688 C.3       3 UNK        -0.2001 
     29 N          24.9892   22.1133    0.1032 N.am      3 UNK        -0.4354 
     30 C          25.6406   21.8822    1.2520 C.2       2 UNK         0.4964 
     31 O          25.5561   22.6159    2.2391 O.2       2 UNK        -0.5047 
     32 CA         26.6159   20.6996    1.2914 C.3       2 UNK         0.0288 
     33 CB         26.5898   19.8109    0.0241 C.3       2 UNK        -0.2113 
     34 N          27.9440   21.2723    1.4998 N.am      2 UNK        -0.4145 
     35 C          29.0503   20.6101    1.8527 C.2       1 UNK         0.5006 
     36 O          29.0889   19.3966    2.0659 O.2       1 UNK        -0.5103 
     37 C          27.0937   30.4793    0.3333 C.2       5 UNK         0.5055 
     38 O          26.5386   31.5614    0.1348 O.2       5 UNK        -0.5220 
     39 N          27.6403   30.1113    1.5044 N.am      6 UNK        -0.4450 
     40 CA         27.8634   30.9424    2.6950 C.3       6 UNK         0.0367 
     41 CB         26.5464   31.5595    3.2172 C.3       6 UNK        -0.1929 
     42 C          28.9716   31.9927    2.4694 C.2       6 UNK         0.5070 
     43 O          29.6372   31.9823    1.4306 O.2       6 UNK        -0.5237 
     44 N          29.1829   32.8519    3.4762 N.am      7 UNK        -0.4739 
     45 CA         30.1075   33.9974    3.5441 C.3       7 UNK         0.0276 
     46 CB         29.7653   35.0485    2.4698 C.3       7 UNK        -0.1927 
     47 C          31.6143   33.6677    3.5217 C.2       7 UNK         0.5013 
     48 O          32.3734   34.3322    4.2293 O.2       7 UNK        -0.5193 
     49 N          32.0312   32.6847    2.7150 N.am      8 UNK        -0.4253 
     50 CA         33.4206   32.2391    2.5753 C.3       8 UNK         0.0242 
     51 CB         33.5434   31.3481    1.3276 C.3       8 UNK        -0.2000 
     52 C          33.9373   31.5104    3.8291 C.2       8 UNK         0.4948 
     53 O          33.1437   31.0066    4.6280 O.2       8 UNK        -0.5275 
     54 N          35.2696   31.4341    3.9580 N.am      9 UNK        -0.4246 
     55 CA         35.9966   30.8900    5.1150 C.3       9 UNK         0.0261 
     56 CB         37.5072   31.0650    4.8868 C.3       9 UNK        -0.1959 
     57 C          35.6782   29.4266    5.4795 C.2       9 UNK         0.5033 
     58 O          35.8474   29.0501    6.6399 O.2       9 UNK        -0.5390 
     59 N          35.2076   28.6358    4.5051 N.am      10 UNK        -0.4215 
     60 CA         34.7091   27.2713    4.7080 C.3       10 UNK         0.0240 
     61 CB         34.6008   26.5673    3.3442 C.3       10 UNK        -0.1982 
     62 C          33.3625   27.2098    5.4589 C.2       10 UNK         0.4970 
     63 O          33.0286   26.1517    5.9934 O.2       10 UNK        -0.4916 
     64 N          32.6196   28.3226    5.4746 N.am      11 UNK        -0.4279 
     65 CA         31.3152   28.4815    6.1273 C.3       11 UNK         0.1003 
     66 C          31.4252   29.3986    7.3715 C.2       11 UNK         0.5709 
     67 N          32.1700   30.4962    7.3019 N.am      11 UNK        -0.7358 
     68 O          30.8357   29.1088    8.4097 O.2       11 UNK        -0.4999 
     69 C69        30.2563   29.0414    5.1423 C.3       12 UNK        -0.0954 
     70 S70        29.9709   27.9434    3.7171 S.3       12 UNK        -0.2268 
     71 C71        31.1065   28.6677    2.4926 C.3       12 UNK         0.0203 
     72 H72        30.4006   24.1632    5.5891 H         1 UNK         0.0888 
     73 H73        29.8893   24.8565    4.0525 H         1 UNK         0.0888 
     74 H74        28.6900   24.1672    5.1473 H         1 UNK         0.0888 
     75 H75        30.2528   23.5190    2.3076 H         1 UNK         0.3017 
     76 H76        31.0553   20.8149    2.5120 H         1 UNK         0.0873 
     77 H77        30.8144   20.9611   -0.1064 H         1 UNK         0.0745 
     78 H78        32.0320   21.8782    0.7032 H         1 UNK         0.0745 
     79 H79        32.3654   24.1437    0.7659 H         1 UNK         0.0705 
     80 H80        32.3920   24.1654   -0.9784 H         1 UNK         0.0705 
     81 H81        31.6050   26.0256    2.0505 H         1 UNK         0.1334 
     82 H82        30.6776   29.6653   -0.0004 H         1 UNK         0.1417 
     83 H83        31.1480   26.0148   -2.2136 H         1 UNK         0.1562 
     84 H84        31.2021   28.1788   -3.3608 H         1 UNK         0.0748 
     85 H85        31.0775   29.6786   -2.4898 H         1 UNK         0.0748 
     86 H86        27.8241   30.8317   -2.4386 H         1 UNK         0.0940 
     87 H87        29.1170   30.4866   -1.3499 H         1 UNK         0.0940 
     88 H88        26.2553   29.4728   -1.3507 H         1 UNK         0.0703 
     89 H89        28.4026   27.7462   -0.6589 H         1 UNK         0.3081 
     90 H90        27.7334   25.5540   -0.4030 H         1 UNK         0.0719 
     91 H91        27.2455   26.1024    2.5811 H         1 UNK         0.0809 
     92 H92        28.1975   24.7661    1.9312 H         1 UNK         0.0809 
     93 H93        28.7254   26.4175    1.6894 H         1 UNK         0.0809 
     94 H94        25.8109   24.4569    1.3786 H         1 UNK         0.2990 
     95 H95        23.6543   23.6344    0.6540 H         1 UNK         0.0690 
     96 H96        22.5530   22.2593   -1.0939 H         1 UNK         0.0788 
     97 H97        23.7854   22.7136   -2.2706 H         1 UNK         0.0788 
     98 H98        22.6872   23.9269   -1.6272 H         1 UNK         0.0788 
     99 H99        25.1482   21.4757   -0.6639 H         1 UNK         0.2993 
    100 H100       26.3528   20.0917    2.1595 H         1 UNK         0.0949 
    101 H101       25.5884   19.4230   -0.1684 H         1 UNK         0.0767 
    102 H102       26.9213   20.3525   -0.8630 H         1 UNK         0.0767 
    103 H103       27.2403   18.9436    0.1363 H         1 UNK         0.0767 
    104 H104       28.0057   22.2742    1.3815 H         1 UNK         0.3013 
    105 H105       28.0798   29.2028    1.5335 H         1 UNK         0.3121 
    106 H106       28.2293   30.2651    3.4650 H         1 UNK         0.0774 
    107 H107       26.6622   31.9451    4.2302 H         1 UNK         0.0815 
    108 H108       26.2076   32.3876    2.5938 H         1 UNK         0.0815 
    109 H109       25.7480   30.8181    3.2502 H         1 UNK         0.0815 
    110 H110       28.6165   32.7309    4.3045 H         1 UNK         0.2987 
    111 H111       29.9190   34.4590    4.5150 H         1 UNK         0.0949 
    112 H112       29.9302   34.6694    1.4607 H         1 UNK         0.0806 
    113 H113       28.7252   35.3664    2.5426 H         1 UNK         0.0806 
    114 H114       30.3845   35.9392    2.5850 H         1 UNK         0.0806 
    115 H115       31.3227   32.2211    2.1520 H         1 UNK         0.3010 
    116 H116       34.0375   33.1279    2.4257 H         1 UNK         0.0829 
    117 H117       33.1909   31.8664    0.4355 H         1 UNK         0.0813 
    118 H118       34.5806   31.0656    1.1436 H         1 UNK         0.0813 
    119 H119       32.9709   30.4279    1.4231 H         1 UNK         0.0813 
    120 H120       35.8408   31.8559    3.2392 H         1 UNK         0.3038 
    121 H121       35.7128   31.4948    5.9789 H         1 UNK         0.0769 
    122 H122       37.8489   30.5164    4.0082 H         1 UNK         0.0811 
    123 H123       38.0774   30.6979    5.7416 H         1 UNK         0.0811 
    124 H124       37.7713   32.1142    4.7534 H         1 UNK         0.0811 
    125 H125       35.1220   29.0238    3.5774 H         1 UNK         0.3204 
    126 H126       35.4388   26.7287    5.3130 H         1 UNK         0.0748 
    127 H127       35.5743   26.4942    2.8590 H         1 UNK         0.0771 
    128 H128       34.2207   25.5507    3.4561 H         1 UNK         0.0771 
    129 H129       33.9289   27.0932    2.6661 H         1 UNK         0.0771 
    130 H130       32.9865   29.1716    5.0565 H         1 UNK         0.2980 
    131 H131       30.9587   27.5110    6.4778 H         1 UNK         0.0545 
    132 H132       32.6041   30.7631    6.4233 H         1 UNK         0.3459 
    133 H133       32.2506   31.0930    8.1090 H         1 UNK         0.3459 
    134 H134       30.5402   30.0331    4.7844 H         1 UNK         0.0616 
    135 H135       29.2984   29.1652    5.6505 H         1 UNK         0.0616 
    136 H136       32.1213   28.6659    2.8857 H         1 UNK         0.0634 
    137 H137       30.8375   29.7125    2.3449 H         1 UNK         0.0634 
@<TRIPOS>BOND
     1    1    2 1    
     2    1   72 1    
     3    1   73 1    
     4    1   74 1    
     5    2    3 2    
     6    2    4 am   BACKBONE|DICT|INTERRES
     7    4    5 1    
     8    4   75 1    
     9    5    6 1    
    10    5   35 1    
    11    5   76 1    
    12    6    7 1    
    13    6   77 1    
    14    6   78 1    
    15    7    8 1    
    16    8    9 1    
    17    8   79 1    
    18    8   80 1    
    19    9   10 ar   
    20    9   14 ar   
    21   10   11 ar   
    22   10   81 1    
    23   11   12 ar   
    24   11   71 1    
    25   12   13 ar   
    26   12   82 1    
    27   13   14 ar   
    28   13   15 1    
    29   14   83 1    
    30   15   16 1    
    31   15   84 1    
    32   15   85 1    
    33   16   17 1    
    34   17   18 1    
    35   17   86 1    
    36   17   87 1    
    37   18   19 1    
    38   18   37 1    
    39   18   88 1    
    40   19   20 am   BACKBONE|DICT|INTERRES
    41   19   89 1    
    42   20   21 2    
    43   20   22 1    
    44   22   23 1    
    45   22   24 1    
    46   22   90 1    
    47   23   91 1    
    48   23   92 1    
    49   23   93 1    
    50   24   25 am   BACKBONE|DICT|INTERRES
    51   24   94 1    
    52   25   26 2    
    53   25   27 1    
    54   27   28 1    
    55   27   29 1    
    56   27   95 1    
    57   28   96 1    
    58   28   97 1    
    59   28   98 1    
    60   29   30 am   BACKBONE|DICT|INTERRES
    61   29   99 1    
    62   30   31 2    
    63   30   32 1    
    64   32   33 1    
    65   32   34 1    
    66   32  100 1    
    67   33  101 1    
    68   33  102 1    
    69   33  103 1    
    70   34   35 am   BACKBONE|DICT|INTERRES
    71   34  104 1    
    72   35   36 2    
    73   37   38 2    
    74   37   39 am   BACKBONE|DICT|INTERRES
    75   39   40 1    
    76   39  105 1    
    77   40   41 1    
    78   40   42 1    
    79   40  106 1    
    80   41  107 1    
    81   41  108 1    
    82   41  109 1    
    83   42   43 2    
    84   42   44 am   BACKBONE|DICT|INTERRES
    85   44   45 1    
    86   44  110 1    
    87   45   46 1    
    88   45   47 1    
    89   45  111 1    
    90   46  112 1    
    91   46  113 1    
    92   46  114 1    
    93   47   48 2    
    94   47   49 am   BACKBONE|DICT|INTERRES
    95   49   50 1    
    96   49  115 1    
    97   50   51 1    
    98   50   52 1    
    99   50  116 1    
   100   51  117 1    
   101   51  118 1    
   102   51  119 1    
   103   52   53 2    
   104   52   54 am   BACKBONE|DICT|INTERRES
   105   54   55 1    
   106   54  120 1    
   107   55   56 1    
   108   55   57 1    
   109   55  121 1    
   110   56  122 1    
   111   56  123 1    
   112   56  124 1    
   113   57   58 2    
   114   57   59 am   BACKBONE|DICT|INTERRES
   115   59   60 1    
   116   59  125 1    
   117   60   61 1    
   118   60   62 1    
   119   60  126 1    
   120   61  127 1    
   121   61  128 1    
   122   61  129 1    
   123   62   63 2    
   124   62   64 am   BACKBONE|DICT|INTERRES
   125   64   65 1    
   126   64  130 1    
   127   65   66 1    
   128   65   69 1    
   129   65  131 1    
   130   66   67 am   BACKBONE|DICT|INTERRES
   131   66   68 2    
   132   67  132 1    
   133   67  133 1    
   134   69   70 1    
   135   69  134 1    
   136   69  135 1    
   137   70   71 1    
   138   71  136 1    
   139   71  137 1    
@<TRIPOS>SUBSTRUCTURE
     1 UNK         1 GROUP             0       ****    0 ROOT    
