@<TRIPOS>MOLECULE
3R136
137   139    1
SMALL
USER_CHARGES


@<TRIPOS>ATOM
      1 CA         26.9299   16.4633    1.4343 C.3       0 UNK        -0.1979 
      2 C          26.7201   17.9211    1.8176 C.2       0 UNK         0.4864 
      3 O          26.1155   18.1939    2.8551 O.2       0 UNK        -0.5359 
      4 N          27.2193   18.8488    0.9872 N.am      1 UNK        -0.4318 
      5 CA         27.1207   20.3063    1.1395 C.3       1 UNK         0.0824 
      6 C6         27.8928   20.8431    2.3785 C.3       12 UNK        -0.0944 
      7 S7         28.4917   22.5509    2.1267 S.3       12 UNK        -0.2672 
      8 C8         30.2722   22.2490    1.9181 C.3       12 UNK         0.0333 
      9 C9         31.0509   23.5228    1.6192 C.ar      12 UNK        -0.0807 
     10 C10        31.2463   24.4802    2.6205 C.ar      12 UNK        -0.0894 
     11 C11        32.0439   25.6040    2.3827 C.ar      12 UNK        -0.0804 
     12 C12        32.6513   25.7621    1.1332 C.ar      12 UNK        -0.0824 
     13 C13        32.4448   24.8262    0.1162 C.ar      12 UNK        -0.0762 
     14 C14        31.6365   23.7120    0.3627 C.ar      12 UNK        -0.0782 
     15 C15        33.1413   24.9864   -1.2285 C.3       12 UNK         0.0230 
     16 S16        32.0737   25.7704   -2.4776 S.3       12 UNK        -0.2608 
     17 C17        32.0304   27.5076   -1.9140 C.3       12 UNK        -0.0989 
     18 CA         30.5959   27.9883   -1.5844 C.3       5 UNK         0.0716 
     19 N          29.9338   27.1252   -0.5964 N.am      5 UNK        -0.4135 
     20 C          28.6113   27.0797   -0.3989 C.2       4 UNK         0.5031 
     21 O          27.8047   27.8072   -0.9848 O.2       4 UNK        -0.5229 
     22 CA         28.1127   26.0615    0.6376 C.3       4 UNK         0.0329 
     23 CB         28.2070   26.6309    2.0614 C.3       4 UNK        -0.2001 
     24 N          26.7237   25.6906    0.3659 N.am      4 UNK        -0.4303 
     25 C          26.3568   24.7648   -0.5255 C.2       3 UNK         0.5044 
     26 O          27.1467   24.0561   -1.1565 O.2       3 UNK        -0.5152 
     27 CA         24.8521   24.5912   -0.7564 C.3       3 UNK         0.0319 
     28 CB         24.3874   25.3245   -2.0262 C.3       3 UNK        -0.2001 
     29 N          24.6144   23.1614   -0.8841 N.am      3 UNK        -0.4354 
     30 C          23.5262   22.5017   -0.4749 C.2       2 UNK         0.4964 
     31 O          22.4806   23.0467   -0.1194 O.2       2 UNK        -0.5047 
     32 CA         23.6470   20.9665   -0.4079 C.3       2 UNK         0.0288 
     33 CB         23.1905   20.3274   -1.7296 C.3       2 UNK        -0.2113 
     34 N          25.0071   20.5100   -0.0866 N.am      2 UNK        -0.4145 
     35 C          25.6531   20.7857    1.0587 C.2       1 UNK         0.5006 
     36 O          25.1303   21.3779    2.0059 O.2       1 UNK        -0.5103 
     37 C          30.6027   29.4818   -1.1858 C.2       5 UNK         0.5055 
     38 O          30.8075   30.3337   -2.0522 O.2       5 UNK        -0.5220 
     39 N          30.3857   29.7757    0.0998 N.am      6 UNK        -0.4450 
     40 CA         30.2897   31.1069    0.6890 C.3       6 UNK         0.0367 
     41 CB         31.6996   31.6887    0.9211 C.3       6 UNK        -0.1929 
     42 C          29.4577   30.9877    1.9768 C.2       6 UNK         0.5070 
     43 O          28.7313   30.0044    2.1403 O.2       6 UNK        -0.5237 
     44 N          29.5713   31.9703    2.8740 N.am      7 UNK        -0.4739 
     45 CA         28.9391   31.9700    4.1898 C.3       7 UNK         0.0276 
     46 CB         27.5718   32.6713    4.1087 C.3       7 UNK        -0.1927 
     47 C          29.8638   32.6800    5.1822 C.2       7 UNK         0.5013 
     48 O          30.6532   33.5356    4.7717 O.2       7 UNK        -0.5193 
     49 N          29.7298   32.3251    6.4676 N.am      8 UNK        -0.4253 
     50 CA         30.4842   32.8588    7.6081 C.3       8 UNK         0.0242 
     51 CB         30.0419   34.3107    7.9074 C.3       8 UNK        -0.2000 
     52 C          32.0077   32.6855    7.4316 C.2       8 UNK         0.4948 
     53 O          32.4442   31.6400    6.9439 O.2       8 UNK        -0.5275 
     54 N          32.7898   33.7042    7.8165 N.am      9 UNK        -0.4246 
     55 CA         34.2546   33.7271    7.7452 C.3       9 UNK         0.0261 
     56 CB         34.7746   35.0226    8.3887 C.3       9 UNK        -0.1959 
     57 C          34.8247   33.5676    6.3243 C.2       9 UNK         0.5033 
     58 O          35.9288   33.0404    6.1809 O.2       9 UNK        -0.5390 
     59 N          34.0630   33.9789    5.2988 N.am      10 UNK        -0.4215 
     60 CA         34.4233   33.8150    3.8871 C.3       10 UNK         0.0240 
     61 CB         33.4811   34.6525    3.0076 C.3       10 UNK        -0.1982 
     62 C          34.4470   32.3459    3.4250 C.2       10 UNK         0.4970 
     63 O          35.1191   32.0498    2.4367 O.2       10 UNK        -0.4916 
     64 N          33.7472   31.4561    4.1448 N.am      11 UNK        -0.4279 
     65 CA         33.8232   29.9993    3.9615 C.3       11 UNK         0.1003 
     66 C          35.0640   29.3480    4.6461 C.2       11 UNK         0.5709 
     67 N          35.8868   30.0765    5.3941 N.am      11 UNK        -0.7358 
     68 O          35.3021   28.1550    4.4814 O.2       11 UNK        -0.4999 
     69 C69        32.4832   29.3041    4.3545 C.3       12 UNK        -0.0954 
     70 S70        31.7971   28.2958    2.9985 S.3       12 UNK        -0.2268 
     71 C71        32.3021   26.6186    3.4885 C.3       12 UNK         0.0203 
     72 H72        27.4835   16.3610    0.5010 H         1 UNK         0.0888 
     73 H73        27.4860   15.9465    2.2159 H         1 UNK         0.0888 
     74 H74        25.9682   15.9652    1.3139 H         1 UNK         0.0888 
     75 H75        27.7033   18.5388    0.1555 H         1 UNK         0.3017 
     76 H76        27.6129   20.7085    0.2519 H         1 UNK         0.0873 
     77 H77        27.2864   20.8008    3.2851 H         1 UNK         0.0745 
     78 H78        28.7529   20.2041    2.5844 H         1 UNK         0.0745 
     79 H79        30.6676   21.7954    2.8283 H         1 UNK         0.0705 
     80 H80        30.4162   21.5169    1.1218 H         1 UNK         0.0705 
     81 H81        30.7959   24.3328    3.5928 H         1 UNK         0.1334 
     82 H82        33.2967   26.6130    0.9626 H         1 UNK         0.1417 
     83 H83        31.4933   22.9746   -0.4159 H         1 UNK         0.1562 
     84 H84        33.4452   24.0059   -1.5982 H         1 UNK         0.0748 
     85 H85        34.0620   25.5622   -1.1206 H         1 UNK         0.0748 
     86 H86        32.4559   28.1180   -2.7133 H         1 UNK         0.0940 
     87 H87        32.6910   27.6444   -1.0573 H         1 UNK         0.0940 
     88 H88        30.0138   27.9239   -2.5067 H         1 UNK         0.0703 
     89 H89        30.5323   26.4856   -0.0913 H         1 UNK         0.3081 
     90 H90        28.7424   25.1711    0.5788 H         1 UNK         0.0719 
     91 H91        29.2305   26.9166    2.3034 H         1 UNK         0.0809 
     92 H92        27.8975   25.8933    2.8021 H         1 UNK         0.0809 
     93 H93        27.5840   27.5173    2.1858 H         1 UNK         0.0809 
     94 H94        26.0136   26.2602    0.8024 H         1 UNK         0.2990 
     95 H95        24.3103   24.9775    0.1100 H         1 UNK         0.0690 
     96 H96        24.5785   26.3956   -1.9490 H         1 UNK         0.0788 
     97 H97        23.3173   25.1948   -2.1892 H         1 UNK         0.0788 
     98 H98        24.9083   24.9619   -2.9133 H         1 UNK         0.0788 
     99 H99        25.4382   22.6353   -1.1473 H         1 UNK         0.2993 
    100 H100       22.9839   20.6221    0.3888 H         1 UNK         0.0949 
    101 H101       23.1932   19.2390   -1.6663 H         1 UNK         0.0767 
    102 H102       22.1732   20.6331   -1.9787 H         1 UNK         0.0767 
    103 H103       23.8314   20.6185   -2.5629 H         1 UNK         0.0767 
    104 H104       25.4915   19.9889   -0.8035 H         1 UNK         0.3013 
    105 H105       30.1451   29.0301    0.7415 H         1 UNK         0.3121 
    106 H106       29.7388   31.7571    0.0065 H         1 UNK         0.0774 
    107 H107       31.6570   32.7174    1.2781 H         1 UNK         0.0815 
    108 H108       32.2536   31.1036    1.6539 H         1 UNK         0.0815 
    109 H109       32.2830   31.7008    0.0005 H         1 UNK         0.0815 
    110 H110       30.2221   32.7304    2.7227 H         1 UNK         0.2987 
    111 H111       28.8020   30.9409    4.5309 H         1 UNK         0.0949 
    112 H112       27.6697   33.7045    3.7731 H         1 UNK         0.0806 
    113 H113       26.9037   32.1566    3.4179 H         1 UNK         0.0806 
    114 H114       27.0798   32.6884    5.0820 H         1 UNK         0.0806 
    115 H115       29.0718   31.5918    6.6925 H         1 UNK         0.3010 
    116 H116       30.2123   32.2457    8.4687 H         1 UNK         0.0829 
    117 H117       28.9579   34.3758    8.0026 H         1 UNK         0.0813 
    118 H118       30.4592   34.6720    8.8481 H         1 UNK         0.0813 
    119 H119       30.3418   35.0017    7.1181 H         1 UNK         0.0813 
    120 H120       32.3439   34.5262    8.1979 H         1 UNK         0.3038 
    121 H121       34.6209   32.8830    8.3334 H         1 UNK         0.0769 
    122 H122       34.4153   35.9081    7.8630 H         1 UNK         0.0811 
    123 H123       35.8651   35.0552    8.3735 H         1 UNK         0.0811 
    124 H124       34.4661   35.1009    9.4315 H         1 UNK         0.0811 
    125 H125       33.1482   34.3622    5.4955 H         1 UNK         0.3204 
    126 H126       35.4351   34.2056    3.7583 H         1 UNK         0.0748 
    127 H127       33.5123   35.7068    3.2832 H         1 UNK         0.0771 
    128 H128       33.7668   34.5851    1.9569 H         1 UNK         0.0771 
    129 H129       32.4479   34.3162    3.0837 H         1 UNK         0.0771 
    130 H130       33.2472   31.7668    4.9701 H         1 UNK         0.2980 
    131 H131       33.9892   29.8284    2.8964 H         1 UNK         0.0545 
    132 H132       35.7365   31.0673    5.5395 H         1 UNK         0.3459 
    133 H133       36.6838   29.6278    5.8162 H         1 UNK         0.3459 
    134 H134       32.5796   28.6956    5.2558 H         1 UNK         0.0616 
    135 H135       31.7204   30.0457    4.5978 H         1 UNK         0.0616 
    136 H136       31.7746   26.3445    4.4033 H         1 UNK         0.0634 
    137 H137       33.3656   26.6088    3.7240 H         1 UNK         0.0634 
@<TRIPOS>BOND
     1    1    2 1    
     2    1   72 1    
     3    1   73 1    
     4    1   74 1    
     5    2    3 2    
     6    2    4 am   BACKBONE|DICT|INTERRES
     7    4    5 1    
     8    4   75 1    
     9    5    6 1    
    10    5   35 1    
    11    5   76 1    
    12    6    7 1    
    13    6   77 1    
    14    6   78 1    
    15    7    8 1    
    16    8    9 1    
    17    8   79 1    
    18    8   80 1    
    19    9   10 ar   
    20    9   14 ar   
    21   10   11 ar   
    22   10   81 1    
    23   11   12 ar   
    24   11   71 1    
    25   12   13 ar   
    26   12   82 1    
    27   13   14 ar   
    28   13   15 1    
    29   14   83 1    
    30   15   16 1    
    31   15   84 1    
    32   15   85 1    
    33   16   17 1    
    34   17   18 1    
    35   17   86 1    
    36   17   87 1    
    37   18   19 1    
    38   18   37 1    
    39   18   88 1    
    40   19   20 am   BACKBONE|DICT|INTERRES
    41   19   89 1    
    42   20   21 2    
    43   20   22 1    
    44   22   23 1    
    45   22   24 1    
    46   22   90 1    
    47   23   91 1    
    48   23   92 1    
    49   23   93 1    
    50   24   25 am   BACKBONE|DICT|INTERRES
    51   24   94 1    
    52   25   26 2    
    53   25   27 1    
    54   27   28 1    
    55   27   29 1    
    56   27   95 1    
    57   28   96 1    
    58   28   97 1    
    59   28   98 1    
    60   29   30 am   BACKBONE|DICT|INTERRES
    61   29   99 1    
    62   30   31 2    
    63   30   32 1    
    64   32   33 1    
    65   32   34 1    
    66   32  100 1    
    67   33  101 1    
    68   33  102 1    
    69   33  103 1    
    70   34   35 am   BACKBONE|DICT|INTERRES
    71   34  104 1    
    72   35   36 2    
    73   37   38 2    
    74   37   39 am   BACKBONE|DICT|INTERRES
    75   39   40 1    
    76   39  105 1    
    77   40   41 1    
    78   40   42 1    
    79   40  106 1    
    80   41  107 1    
    81   41  108 1    
    82   41  109 1    
    83   42   43 2    
    84   42   44 am   BACKBONE|DICT|INTERRES
    85   44   45 1    
    86   44  110 1    
    87   45   46 1    
    88   45   47 1    
    89   45  111 1    
    90   46  112 1    
    91   46  113 1    
    92   46  114 1    
    93   47   48 2    
    94   47   49 am   BACKBONE|DICT|INTERRES
    95   49   50 1    
    96   49  115 1    
    97   50   51 1    
    98   50   52 1    
    99   50  116 1    
   100   51  117 1    
   101   51  118 1    
   102   51  119 1    
   103   52   53 2    
   104   52   54 am   BACKBONE|DICT|INTERRES
   105   54   55 1    
   106   54  120 1    
   107   55   56 1    
   108   55   57 1    
   109   55  121 1    
   110   56  122 1    
   111   56  123 1    
   112   56  124 1    
   113   57   58 2    
   114   57   59 am   BACKBONE|DICT|INTERRES
   115   59   60 1    
   116   59  125 1    
   117   60   61 1    
   118   60   62 1    
   119   60  126 1    
   120   61  127 1    
   121   61  128 1    
   122   61  129 1    
   123   62   63 2    
   124   62   64 am   BACKBONE|DICT|INTERRES
   125   64   65 1    
   126   64  130 1    
   127   65   66 1    
   128   65   69 1    
   129   65  131 1    
   130   66   67 am   BACKBONE|DICT|INTERRES
   131   66   68 2    
   132   67  132 1    
   133   67  133 1    
   134   69   70 1    
   135   69  134 1    
   136   69  135 1    
   137   70   71 1    
   138   71  136 1    
   139   71  137 1    
@<TRIPOS>SUBSTRUCTURE
     1 UNK         1 GROUP             0       ****    0 ROOT    
