@<TRIPOS>MOLECULE
3R136
137   139    1
SMALL
USER_CHARGES


@<TRIPOS>ATOM
      1 CA         26.6247   25.0274   -1.4633 C.3       0 UNK        -0.1979 
      2 C          27.0323   23.8814   -0.5500 C.2       0 UNK         0.4864 
      3 O          26.2578   22.9398   -0.3730 O.2       0 UNK        -0.5359 
      4 N          28.2264   23.9712    0.0524 N.am      1 UNK        -0.4318 
      5 CA         28.8635   23.0095    0.9712 C.3       1 UNK         0.0824 
      6 C6         29.0326   21.5720    0.4043 C.3       12 UNK        -0.0944 
      7 S7         30.1282   21.5018   -1.0515 S.3       12 UNK        -0.2672 
      8 C8         31.6633   20.8481   -0.3167 C.3       12 UNK         0.0333 
      9 C9         32.3482   21.8955    0.5472 C.ar      12 UNK        -0.0807 
     10 C10        32.1604   21.9139    1.9326 C.ar      12 UNK        -0.0894 
     11 C11        32.7373   22.9160    2.7198 C.ar      12 UNK        -0.0804 
     12 C12        33.5462   23.8811    2.1054 C.ar      12 UNK        -0.0824 
     13 C13        33.7230   23.8853    0.7190 C.ar      12 UNK        -0.0762 
     14 C14        33.1391   22.8772   -0.0517 C.ar      12 UNK        -0.0782 
     15 C15        34.4963   25.0103    0.0453 C.3       12 UNK         0.0230 
     16 S16        33.4536   25.9246   -1.1400 S.3       12 UNK        -0.2608 
     17 C17        32.0963   26.5178   -0.0662 C.3       12 UNK        -0.0989 
     18 CA         31.5928   27.9425   -0.4354 C.3       5 UNK         0.0716 
     19 N          30.4940   28.4543    0.3849 N.am      5 UNK        -0.4135 
     20 C          29.2850   27.9007    0.5241 C.2       4 UNK         0.5031 
     21 O          28.9828   26.7738    0.1230 O.2       4 UNK        -0.5229 
     22 CA         28.2074   28.8148    1.1357 C.3       4 UNK         0.0329 
     23 CB         27.6717   29.7702    0.0553 C.3       4 UNK        -0.2001 
     24 N          27.0685   28.0861    1.6937 N.am      4 UNK        -0.4303 
     25 C          27.0935   27.3280    2.7952 C.2       3 UNK         0.5044 
     26 O          28.1005   27.1384    3.4749 O.2       3 UNK        -0.5152 
     27 CA         25.7745   26.6684    3.2255 C.3       3 UNK         0.0319 
     28 CB         24.5292   27.1531    2.4527 C.3       3 UNK        -0.2001 
     29 N          25.9209   25.2307    3.0442 N.am      3 UNK        -0.4354 
     30 C          25.7098   24.2890    3.9715 C.2       2 UNK         0.4964 
     31 O          25.2889   24.5191    5.1058 O.2       2 UNK        -0.5047 
     32 CA         26.0100   22.8346    3.5604 C.3       2 UNK         0.0288 
     33 CB         24.7039   22.0686    3.2927 C.3       2 UNK        -0.2113 
     34 N          26.8611   22.7507    2.3704 N.am      2 UNK        -0.4145 
     35 C          28.1816   22.9713    2.3527 C.2       1 UNK         0.5006 
     36 O          28.8522   23.1583    3.3672 O.2       1 UNK        -0.5103 
     37 C          32.6746   29.0359   -0.4620 C.2       5 UNK         0.5055 
     38 O          32.6242   29.8950   -1.3440 O.2       5 UNK        -0.5220 
     39 N          33.6158   29.0130    0.4963 N.am      6 UNK        -0.4450 
     40 CA         34.6976   30.0017    0.6075 C.3       6 UNK         0.0367 
     41 CB         35.7634   29.4968    1.5926 C.3       6 UNK        -0.1929 
     42 C          34.2017   31.3996    1.0204 C.2       6 UNK         0.5070 
     43 O          34.8342   32.3960    0.6687 O.2       6 UNK        -0.5237 
     44 N          33.0728   31.4449    1.7330 N.am      7 UNK        -0.4739 
     45 CA         32.2883   32.6382    2.0256 C.3       7 UNK         0.0276 
     46 CB         32.4665   33.0051    3.5104 C.3       7 UNK        -0.1927 
     47 C          30.8207   32.3366    1.6856 C.2       7 UNK         0.5013 
     48 O          30.4891   31.1976    1.3399 O.2       7 UNK        -0.5193 
     49 N          29.9664   33.3620    1.7849 N.am      8 UNK        -0.4253 
     50 CA         28.5188   33.2375    1.5947 C.3       8 UNK         0.0242 
     51 CB         27.9475   34.5844    1.1220 C.3       8 UNK        -0.2000 
     52 C          27.7960   32.7681    2.8692 C.2       8 UNK         0.4948 
     53 O          26.8070   32.0424    2.7704 O.2       8 UNK        -0.5275 
     54 N          28.2819   33.2100    4.0383 N.am      9 UNK        -0.4246 
     55 CA         27.6548   32.9677    5.3419 C.3       9 UNK         0.0261 
     56 CB         28.0996   34.0689    6.3193 C.3       9 UNK        -0.1959 
     57 C          27.9570   31.5804    5.9344 C.2       9 UNK         0.5033 
     58 O          27.2003   31.1176    6.7894 O.2       9 UNK        -0.5390 
     59 N          29.0536   30.9543    5.4985 N.am      10 UNK        -0.4215 
     60 CA         29.5424   29.6559    5.9507 C.3       10 UNK         0.0240 
     61 CB         30.2790   29.8065    7.2960 C.3       10 UNK        -0.1982 
     62 C          30.4732   29.1012    4.8700 C.2       10 UNK         0.4970 
     63 O          30.9057   29.8563    3.9968 O.2       10 UNK        -0.4916 
     64 N          30.7720   27.8004    4.9453 N.am      11 UNK        -0.4279 
     65 CA         31.5679   27.0959    3.9316 C.3       11 UNK         0.1003 
     66 C          33.0689   27.5143    3.8641 C.2       11 UNK         0.5709 
     67 N          33.6329   28.1363    4.8924 N.am      11 UNK        -0.7358 
     68 O          33.7207   27.3000    2.8470 O.2       11 UNK        -0.4999 
     69 C69        31.3107   25.5606    3.9746 C.3       12 UNK        -0.0954 
     70 S70        32.4579   24.5851    5.0178 S.3       12 UNK        -0.2268 
     71 C71        32.4354   22.9375    4.2204 C.3       12 UNK         0.0203 
     72 H72        26.1392   24.6415   -2.3593 H         1 UNK         0.0888 
     73 H73        25.9249   25.6868   -0.9508 H         1 UNK         0.0888 
     74 H74        27.4851   25.6178   -1.7778 H         1 UNK         0.0888 
     75 H75        28.7405   24.8414   -0.0687 H         1 UNK         0.3017 
     76 H76        29.8621   23.4131    1.1460 H         1 UNK         0.0873 
     77 H77        28.0692   21.1458    0.1218 H         1 UNK         0.0745 
     78 H78        29.4281   20.9014    1.1691 H         1 UNK         0.0745 
     79 H79        31.4477   19.9470    0.2596 H         1 UNK         0.0705 
     80 H80        32.3349   20.5407   -1.1198 H         1 UNK         0.0705 
     81 H81        31.5345   21.1641    2.3970 H         1 UNK         0.1334 
     82 H82        34.0007   24.6619    2.6986 H         1 UNK         0.1417 
     83 H83        33.2642   22.8838   -1.1262 H         1 UNK         0.1562 
     84 H84        35.3544   24.5915   -0.4819 H         1 UNK         0.0748 
     85 H85        34.8949   25.7105    0.7816 H         1 UNK         0.0748 
     86 H86        32.3926   26.4664    0.9766 H         1 UNK         0.0940 
     87 H87        31.2888   25.7928   -0.1659 H         1 UNK         0.0940 
     88 H88        31.2029   27.8805   -1.4537 H         1 UNK         0.0703 
     89 H89        30.6090   29.4123    0.7170 H         1 UNK         0.3081 
     90 H90        28.6584   29.3977    1.9418 H         1 UNK         0.0719 
     91 H91        27.2031   29.2266   -0.7663 H         1 UNK         0.0809 
     92 H92        26.9335   30.4596    0.4649 H         1 UNK         0.0809 
     93 H93        28.4737   30.3726   -0.3729 H         1 UNK         0.0809 
     94 H94        26.1987   28.1640    1.1890 H         1 UNK         0.2990 
     95 H95        25.6376   26.9093    4.2819 H         1 UNK         0.0690 
     96 H96        23.6249   26.6940    2.8529 H         1 UNK         0.0788 
     97 H97        24.5769   26.9044    1.3917 H         1 UNK         0.0788 
     98 H98        24.4018   28.2329    2.5433 H         1 UNK         0.0788 
     99 H99        26.3131   24.9378    2.1618 H         1 UNK         0.2993 
    100 H100       26.5272   22.3576    4.3959 H         1 UNK         0.0949 
    101 H101       24.0522   22.0888    4.1675 H         1 UNK         0.0767 
    102 H102       24.1470   22.4999    2.4597 H         1 UNK         0.0767 
    103 H103       24.8995   21.0217    3.0597 H         1 UNK         0.0767 
    104 H104       26.4012   22.6228    1.4706 H         1 UNK         0.3013 
    105 H105       33.6010   28.2825    1.2037 H         1 UNK         0.3121 
    106 H106       35.1643   30.0963   -0.3753 H         1 UNK         0.0774 
    107 H107       35.3760   29.4379    2.6099 H         1 UNK         0.0815 
    108 H108       36.6227   30.1683    1.6121 H         1 UNK         0.0815 
    109 H109       36.1290   28.5084    1.3135 H         1 UNK         0.0815 
    110 H110       32.5929   30.5778    1.9368 H         1 UNK         0.2987 
    111 H111       32.6135   33.4713    1.3985 H         1 UNK         0.0949 
    112 H112       32.1089   32.2142    4.1699 H         1 UNK         0.0806 
    113 H113       33.5162   33.1810    3.7463 H         1 UNK         0.0806 
    114 H114       31.9253   33.9164    3.7657 H         1 UNK         0.0806 
    115 H115       30.3210   34.2754    2.0302 H         1 UNK         0.3010 
    116 H116       28.3241   32.5032    0.8115 H         1 UNK         0.0829 
    117 H117       28.4014   34.8989    0.1820 H         1 UNK         0.0813 
    118 H118       26.8722   34.5125    0.9519 H         1 UNK         0.0813 
    119 H119       28.1088   35.3760    1.8548 H         1 UNK         0.0813 
    120 H120       29.0948   33.8075    4.0295 H         1 UNK         0.3038 
    121 H121       26.5711   33.0400    5.2240 H         1 UNK         0.0769 
    122 H122       29.1786   34.0575    6.4788 H         1 UNK         0.0811 
    123 H123       27.6259   33.9403    7.2938 H         1 UNK         0.0811 
    124 H124       27.8225   35.0588    5.9561 H         1 UNK         0.0811 
    125 H125       29.5939   31.3517    4.7397 H         1 UNK         0.3204 
    126 H126       28.6974   28.9723    6.0594 H         1 UNK         0.0748 
    127 H127       30.6550   28.8465    7.6513 H         1 UNK         0.0771 
    128 H128       31.1310   30.4827    7.2132 H         1 UNK         0.0771 
    129 H129       29.6181   30.1969    8.0701 H         1 UNK         0.0771 
    130 H130       30.3900   27.2370    5.6897 H         1 UNK         0.2980 
    131 H131       31.1541   27.4262    2.9773 H         1 UNK         0.0545 
    132 H132       34.6014   28.4048    4.8351 H         1 UNK         0.3459 
    133 H133       33.1036   28.3236    5.7278 H         1 UNK         0.3459 
    134 H134       30.2912   25.3524    4.3032 H         1 UNK         0.0616 
    135 H135       31.3461   25.1812    2.9545 H         1 UNK         0.0616 
    136 H136       33.1576   22.2978    4.7286 H         1 UNK         0.0634 
    137 H137       31.4523   22.5002    4.4028 H         1 UNK         0.0634 
@<TRIPOS>BOND
     1    1    2 1    
     2    1   72 1    
     3    1   73 1    
     4    1   74 1    
     5    2    3 2    
     6    2    4 am   BACKBONE|DICT|INTERRES
     7    4    5 1    
     8    4   75 1    
     9    5    6 1    
    10    5   35 1    
    11    5   76 1    
    12    6    7 1    
    13    6   77 1    
    14    6   78 1    
    15    7    8 1    
    16    8    9 1    
    17    8   79 1    
    18    8   80 1    
    19    9   10 ar   
    20    9   14 ar   
    21   10   11 ar   
    22   10   81 1    
    23   11   12 ar   
    24   11   71 1    
    25   12   13 ar   
    26   12   82 1    
    27   13   14 ar   
    28   13   15 1    
    29   14   83 1    
    30   15   16 1    
    31   15   84 1    
    32   15   85 1    
    33   16   17 1    
    34   17   18 1    
    35   17   86 1    
    36   17   87 1    
    37   18   19 1    
    38   18   37 1    
    39   18   88 1    
    40   19   20 am   BACKBONE|DICT|INTERRES
    41   19   89 1    
    42   20   21 2    
    43   20   22 1    
    44   22   23 1    
    45   22   24 1    
    46   22   90 1    
    47   23   91 1    
    48   23   92 1    
    49   23   93 1    
    50   24   25 am   BACKBONE|DICT|INTERRES
    51   24   94 1    
    52   25   26 2    
    53   25   27 1    
    54   27   28 1    
    55   27   29 1    
    56   27   95 1    
    57   28   96 1    
    58   28   97 1    
    59   28   98 1    
    60   29   30 am   BACKBONE|DICT|INTERRES
    61   29   99 1    
    62   30   31 2    
    63   30   32 1    
    64   32   33 1    
    65   32   34 1    
    66   32  100 1    
    67   33  101 1    
    68   33  102 1    
    69   33  103 1    
    70   34   35 am   BACKBONE|DICT|INTERRES
    71   34  104 1    
    72   35   36 2    
    73   37   38 2    
    74   37   39 am   BACKBONE|DICT|INTERRES
    75   39   40 1    
    76   39  105 1    
    77   40   41 1    
    78   40   42 1    
    79   40  106 1    
    80   41  107 1    
    81   41  108 1    
    82   41  109 1    
    83   42   43 2    
    84   42   44 am   BACKBONE|DICT|INTERRES
    85   44   45 1    
    86   44  110 1    
    87   45   46 1    
    88   45   47 1    
    89   45  111 1    
    90   46  112 1    
    91   46  113 1    
    92   46  114 1    
    93   47   48 2    
    94   47   49 am   BACKBONE|DICT|INTERRES
    95   49   50 1    
    96   49  115 1    
    97   50   51 1    
    98   50   52 1    
    99   50  116 1    
   100   51  117 1    
   101   51  118 1    
   102   51  119 1    
   103   52   53 2    
   104   52   54 am   BACKBONE|DICT|INTERRES
   105   54   55 1    
   106   54  120 1    
   107   55   56 1    
   108   55   57 1    
   109   55  121 1    
   110   56  122 1    
   111   56  123 1    
   112   56  124 1    
   113   57   58 2    
   114   57   59 am   BACKBONE|DICT|INTERRES
   115   59   60 1    
   116   59  125 1    
   117   60   61 1    
   118   60   62 1    
   119   60  126 1    
   120   61  127 1    
   121   61  128 1    
   122   61  129 1    
   123   62   63 2    
   124   62   64 am   BACKBONE|DICT|INTERRES
   125   64   65 1    
   126   64  130 1    
   127   65   66 1    
   128   65   69 1    
   129   65  131 1    
   130   66   67 am   BACKBONE|DICT|INTERRES
   131   66   68 2    
   132   67  132 1    
   133   67  133 1    
   134   69   70 1    
   135   69  134 1    
   136   69  135 1    
   137   70   71 1    
   138   71  136 1    
   139   71  137 1    
@<TRIPOS>SUBSTRUCTURE
     1 UNK         1 GROUP             0       ****    0 ROOT    
