@<TRIPOS>MOLECULE
3R136
137   139    1
SMALL
USER_CHARGES


@<TRIPOS>ATOM
      1 CA         29.2807   23.8251    2.3399 C.3       0 UNK        -0.1979 
      2 C          29.3828   25.2963    1.9752 C.2       0 UNK         0.4864 
      3 O          28.3723   25.8896    1.5905 O.2       0 UNK        -0.5359 
      4 N          30.5769   25.8956    2.0927 N.am      1 UNK        -0.4318 
      5 CA         30.7801   27.3475    2.0308 C.3       1 UNK         0.0824 
      6 C6         32.2629   27.7450    1.8558 C.3       12 UNK        -0.0944 
      7 S7         32.8238   27.6140    0.1253 S.3       12 UNK        -0.2672 
      8 C8         34.1469   26.3696    0.2224 C.3       12 UNK         0.0333 
      9 C9         33.5732   24.9980    0.5241 C.ar      12 UNK        -0.0807 
     10 C10        33.6870   24.4549    1.8046 C.ar      12 UNK        -0.0894 
     11 C11        33.0794   23.2351    2.1100 C.ar      12 UNK        -0.0804 
     12 C12        32.3844   22.5404    1.1130 C.ar      12 UNK        -0.0824 
     13 C13        32.2767   23.0708   -0.1766 C.ar      12 UNK        -0.0762 
     14 C14        32.8856   24.2944   -0.4677 C.ar      12 UNK        -0.0782 
     15 C15        31.4867   22.3363   -1.2514 C.3       12 UNK         0.0230 
     16 S16        29.7097   22.7406   -1.1901 S.3       12 UNK        -0.2608 
     17 C17        29.7210   24.5093   -1.6347 C.3       12 UNK        -0.0989 
     18 CA         28.3157   25.0498   -1.9971 C.3       5 UNK         0.0716 
     19 N          27.3621   24.9759   -0.8830 N.am      5 UNK        -0.4135 
     20 C          26.0602   24.7044   -1.0299 C.2       4 UNK         0.5031 
     21 O          25.5236   24.4664   -2.1134 O.2       4 UNK        -0.5229 
     22 CA         25.2046   24.6766    0.2478 C.3       4 UNK         0.0329 
     23 CB         25.4757   23.4017    1.0634 C.3       4 UNK        -0.2001 
     24 N          25.3564   25.8530    1.1093 N.am      4 UNK        -0.4303 
     25 C          24.9638   27.0934    0.7832 C.2       3 UNK         0.5044 
     26 O          24.5431   27.4116   -0.3295 O.2       3 UNK        -0.5152 
     27 CA         24.9819   28.1454    1.9010 C.3       3 UNK         0.0319 
     28 CB         23.7236   28.0009    2.7826 C.3       3 UNK        -0.2001 
     29 N          26.2041   28.0802    2.7055 N.am      3 UNK        -0.4354 
     30 C          26.6118   29.0435    3.5484 C.2       2 UNK         0.4964 
     31 O          25.9642   30.0599    3.8006 O.2       2 UNK        -0.5047 
     32 CA         27.9893   28.8600    4.1964 C.3       2 UNK         0.0288 
     33 CB         27.8800   27.8883    5.3886 C.3       2 UNK        -0.2113 
     34 N          28.9209   28.3931    3.1754 N.am      2 UNK        -0.4145 
     35 C          30.1777   27.9623    3.3078 C.2       1 UNK         0.5006 
     36 O          30.8312   27.9642    4.3582 O.2       1 UNK        -0.5103 
     37 C          28.4278   26.4961   -2.5057 C.2       5 UNK         0.5055 
     38 O          28.4926   26.7114   -3.7170 O.2       5 UNK        -0.5220 
     39 N          28.4589   27.4543   -1.5745 N.am      6 UNK        -0.4450 
     40 CA         28.6086   28.8874   -1.7986 C.3       6 UNK         0.0367 
     41 CB         30.0415   29.2147   -2.2687 C.3       6 UNK        -0.1929 
     42 C          28.2858   29.5943   -0.4775 C.2       6 UNK         0.5070 
     43 O          28.0417   28.9220    0.5270 O.2       6 UNK        -0.5237 
     44 N          28.3033   30.9309   -0.4955 N.am      7 UNK        -0.4739 
     45 CA         28.1194   31.7882    0.6783 C.3       7 UNK         0.0276 
     46 CB         27.5916   33.1581    0.2035 C.3       7 UNK        -0.1927 
     47 C          29.4027   31.8882    1.5369 C.2       7 UNK         0.5013 
     48 O          30.2172   30.9624    1.5448 O.2       7 UNK        -0.5193 
     49 N          29.5524   33.0104    2.2570 N.am      8 UNK        -0.4253 
     50 CA         30.5832   33.2842    3.2665 C.3       8 UNK         0.0242 
     51 CB         32.0031   33.2847    2.6500 C.3       8 UNK        -0.2000 
     52 C          30.4084   32.3549    4.4835 C.2       8 UNK         0.4948 
     53 O          29.2698   32.1394    4.9025 O.2       8 UNK        -0.5275 
     54 N          31.5110   31.8450    5.0433 N.am      9 UNK        -0.4246 
     55 CA         31.5257   30.9086    6.1684 C.3       9 UNK         0.0261 
     56 CB         31.1726   31.6308    7.4881 C.3       9 UNK        -0.1959 
     57 C          32.8819   30.1890    6.2292 C.2       9 UNK         0.5033 
     58 O          33.4756   30.0926    7.3050 O.2       9 UNK        -0.5390 
     59 N          33.3769   29.7224    5.0716 N.am      10 UNK        -0.4215 
     60 CA         34.6726   29.0382    4.9654 C.3       10 UNK         0.0240 
     61 CB         35.2193   29.1182    3.5303 C.3       10 UNK        -0.1982 
     62 C          34.6522   27.5919    5.4970 C.2       10 UNK         0.4970 
     63 O          35.7232   27.0704    5.8108 O.2       10 UNK        -0.4916 
     64 N          33.4636   26.9885    5.6421 N.am      11 UNK        -0.4279 
     65 CA         33.2630   25.7776    6.4544 C.3       11 UNK         0.1003 
     66 C          31.9198   25.7590    7.2358 C.2       11 UNK         0.5709 
     67 N          30.9198   26.5545    6.8742 N.am      11 UNK        -0.7358 
     68 O          31.7937   25.0271    8.2149 O.2       11 UNK        -0.4999 
     69 C69        33.5850   24.4549    5.6999 C.3       12 UNK        -0.0954 
     70 S70        32.2317   23.7880    4.6716 S.3       12 UNK        -0.2268 
     71 C71        33.1399   22.6971    3.5298 C.3       12 UNK         0.0203 
     72 H72        28.8764   23.2523    1.5083 H         1 UNK         0.0888 
     73 H73        30.2446   23.4001    2.6038 H         1 UNK         0.0888 
     74 H74        28.6148   23.7009    3.1930 H         1 UNK         0.0888 
     75 H75        31.3779   25.3519    2.3835 H         1 UNK         0.3017 
     76 H76        30.2325   27.7376    1.1717 H         1 UNK         0.0873 
     77 H77        32.8956   27.1533    2.5179 H         1 UNK         0.0745 
     78 H78        32.4095   28.7901    2.1354 H         1 UNK         0.0745 
     79 H79        34.6784   26.3406   -0.7298 H         1 UNK         0.0705 
     80 H80        34.8786   26.6678    0.9750 H         1 UNK         0.0705 
     81 H81        34.2127   24.9989    2.5777 H         1 UNK         0.1334 
     82 H82        31.9022   21.6004    1.3450 H         1 UNK         0.1417 
     83 H83        32.7943   24.7211   -1.4573 H         1 UNK         0.1562 
     84 H84        31.6066   21.2595   -1.1237 H         1 UNK         0.0748 
     85 H85        31.8798   22.5687   -2.2424 H         1 UNK         0.0748 
     86 H86        30.3985   24.6345   -2.4821 H         1 UNK         0.0940 
     87 H87        30.1557   25.0796   -0.8125 H         1 UNK         0.0940 
     88 H88        27.9443   24.4470   -2.8290 H         1 UNK         0.0703 
     89 H89        27.7099   25.2054    0.0460 H         1 UNK         0.3081 
     90 H90        24.1601   24.6444   -0.0700 H         1 UNK         0.0719 
     91 H91        26.4781   23.3984    1.4898 H         1 UNK         0.0809 
     92 H92        24.7638   23.2968    1.8823 H         1 UNK         0.0809 
     93 H93        25.3832   22.5110    0.4403 H         1 UNK         0.0809 
     94 H94        25.6949   25.6809    2.0441 H         1 UNK         0.2990 
     95 H95        24.9561   29.1235    1.4153 H         1 UNK         0.0690 
     96 H96        23.6194   28.8324    3.4791 H         1 UNK         0.0788 
     97 H97        23.7438   27.0788    3.3645 H         1 UNK         0.0788 
     98 H98        22.8189   27.9833    2.1732 H         1 UNK         0.0788 
     99 H99        26.8431   27.3232    2.4895 H         1 UNK         0.2993 
    100 H100       28.3298   29.8303    4.5544 H         1 UNK         0.0949 
    101 H101       28.7628   27.9462    6.0216 H         1 UNK         0.0767 
    102 H102       27.0273   28.1361    6.0226 H         1 UNK         0.0767 
    103 H103       27.7591   26.8546    5.0625 H         1 UNK         0.0767 
    104 H104       28.5445   28.4211    2.2265 H         1 UNK         0.3013 
    105 H105       28.3345   27.2190   -0.5952 H         1 UNK         0.3121 
    106 H106       27.8838   29.2065   -2.5502 H         1 UNK         0.0774 
    107 H107       30.1580   30.2778   -2.4803 H         1 UNK         0.0815 
    108 H108       30.7778   28.9534   -1.5089 H         1 UNK         0.0815 
    109 H109       30.3018   28.6813   -3.1825 H         1 UNK         0.0815 
    110 H110       28.5471   31.3988   -1.3563 H         1 UNK         0.2987 
    111 H111       27.3544   31.3378    1.3155 H         1 UNK         0.0949 
    112 H112       28.3498   33.7152   -0.3489 H         1 UNK         0.0806 
    113 H113       26.7258   33.0413   -0.4490 H         1 UNK         0.0806 
    114 H114       27.2654   33.7768    1.0401 H         1 UNK         0.0806 
    115 H115       28.8176   33.7009    2.1997 H         1 UNK         0.3010 
    116 H116       30.3866   34.2933    3.6317 H         1 UNK         0.0829 
    117 H117       32.0436   33.9218    1.7664 H         1 UNK         0.0813 
    118 H118       32.7402   33.6754    3.3524 H         1 UNK         0.0813 
    119 H119       32.3265   32.2876    2.3490 H         1 UNK         0.0813 
    120 H120       32.4126   32.0927    4.6586 H         1 UNK         0.3038 
    121 H121       30.7726   30.1382    5.9889 H         1 UNK         0.0769 
    122 H122       31.8880   32.4218    7.7152 H         1 UNK         0.0811 
    123 H123       31.1742   30.9350    8.3281 H         1 UNK         0.0811 
    124 H124       30.1796   32.0781    7.4511 H         1 UNK         0.0811 
    125 H125       32.8120   29.7888    4.2370 H         1 UNK         0.3204 
    126 H126       35.3790   29.5840    5.5953 H         1 UNK         0.0748 
    127 H127       35.2163   30.1426    3.1573 H         1 UNK         0.0771 
    128 H128       36.2518   28.7680    3.4958 H         1 UNK         0.0771 
    129 H129       34.6585   28.5037    2.8329 H         1 UNK         0.0771 
    130 H130       32.6236   27.4653    5.3393 H         1 UNK         0.2980 
    131 H131       33.9992   25.8402    7.2589 H         1 UNK         0.0545 
    132 H132       30.9421   27.0983    6.0184 H         1 UNK         0.3459 
    133 H133       30.0730   26.5243    7.4177 H         1 UNK         0.3459 
    134 H134       34.4756   24.5866    5.0841 H         1 UNK         0.0616 
    135 H135       33.8428   23.6817    6.4253 H         1 UNK         0.0616 
    136 H136       32.7010   21.6998    3.5832 H         1 UNK         0.0634 
    137 H137       34.1806   22.5898    3.8384 H         1 UNK         0.0634 
@<TRIPOS>BOND
     1    1    2 1    
     2    1   72 1    
     3    1   73 1    
     4    1   74 1    
     5    2    3 2    
     6    2    4 am   BACKBONE|DICT|INTERRES
     7    4    5 1    
     8    4   75 1    
     9    5    6 1    
    10    5   35 1    
    11    5   76 1    
    12    6    7 1    
    13    6   77 1    
    14    6   78 1    
    15    7    8 1    
    16    8    9 1    
    17    8   79 1    
    18    8   80 1    
    19    9   10 ar   
    20    9   14 ar   
    21   10   11 ar   
    22   10   81 1    
    23   11   12 ar   
    24   11   71 1    
    25   12   13 ar   
    26   12   82 1    
    27   13   14 ar   
    28   13   15 1    
    29   14   83 1    
    30   15   16 1    
    31   15   84 1    
    32   15   85 1    
    33   16   17 1    
    34   17   18 1    
    35   17   86 1    
    36   17   87 1    
    37   18   19 1    
    38   18   37 1    
    39   18   88 1    
    40   19   20 am   BACKBONE|DICT|INTERRES
    41   19   89 1    
    42   20   21 2    
    43   20   22 1    
    44   22   23 1    
    45   22   24 1    
    46   22   90 1    
    47   23   91 1    
    48   23   92 1    
    49   23   93 1    
    50   24   25 am   BACKBONE|DICT|INTERRES
    51   24   94 1    
    52   25   26 2    
    53   25   27 1    
    54   27   28 1    
    55   27   29 1    
    56   27   95 1    
    57   28   96 1    
    58   28   97 1    
    59   28   98 1    
    60   29   30 am   BACKBONE|DICT|INTERRES
    61   29   99 1    
    62   30   31 2    
    63   30   32 1    
    64   32   33 1    
    65   32   34 1    
    66   32  100 1    
    67   33  101 1    
    68   33  102 1    
    69   33  103 1    
    70   34   35 am   BACKBONE|DICT|INTERRES
    71   34  104 1    
    72   35   36 2    
    73   37   38 2    
    74   37   39 am   BACKBONE|DICT|INTERRES
    75   39   40 1    
    76   39  105 1    
    77   40   41 1    
    78   40   42 1    
    79   40  106 1    
    80   41  107 1    
    81   41  108 1    
    82   41  109 1    
    83   42   43 2    
    84   42   44 am   BACKBONE|DICT|INTERRES
    85   44   45 1    
    86   44  110 1    
    87   45   46 1    
    88   45   47 1    
    89   45  111 1    
    90   46  112 1    
    91   46  113 1    
    92   46  114 1    
    93   47   48 2    
    94   47   49 am   BACKBONE|DICT|INTERRES
    95   49   50 1    
    96   49  115 1    
    97   50   51 1    
    98   50   52 1    
    99   50  116 1    
   100   51  117 1    
   101   51  118 1    
   102   51  119 1    
   103   52   53 2    
   104   52   54 am   BACKBONE|DICT|INTERRES
   105   54   55 1    
   106   54  120 1    
   107   55   56 1    
   108   55   57 1    
   109   55  121 1    
   110   56  122 1    
   111   56  123 1    
   112   56  124 1    
   113   57   58 2    
   114   57   59 am   BACKBONE|DICT|INTERRES
   115   59   60 1    
   116   59  125 1    
   117   60   61 1    
   118   60   62 1    
   119   60  126 1    
   120   61  127 1    
   121   61  128 1    
   122   61  129 1    
   123   62   63 2    
   124   62   64 am   BACKBONE|DICT|INTERRES
   125   64   65 1    
   126   64  130 1    
   127   65   66 1    
   128   65   69 1    
   129   65  131 1    
   130   66   67 am   BACKBONE|DICT|INTERRES
   131   66   68 2    
   132   67  132 1    
   133   67  133 1    
   134   69   70 1    
   135   69  134 1    
   136   69  135 1    
   137   70   71 1    
   138   71  136 1    
   139   71  137 1    
@<TRIPOS>SUBSTRUCTURE
     1 UNK         1 GROUP             0       ****    0 ROOT    
