@<TRIPOS>MOLECULE
3R136
137   139    1
SMALL
USER_CHARGES


@<TRIPOS>ATOM
      1 CA         27.2012   23.5256   -2.4737 C.3       0 UNK        -0.1979 
      2 C          27.4243   23.3480   -0.9803 C.2       0 UNK         0.4864 
      3 O          26.5134   22.9083   -0.2772 O.2       0 UNK        -0.5359 
      4 N          28.6239   23.6919   -0.4874 N.am      1 UNK        -0.4318 
      5 CA         29.0444   23.5596    0.9126 C.3       1 UNK         0.0824 
      6 C6         29.2011   22.0682    1.3259 C.3       12 UNK        -0.0944 
      7 S7         30.3019   21.8308    2.7607 S.3       12 UNK        -0.2672 
      8 C8         31.8880   21.4216    1.9577 C.3       12 UNK         0.0333 
      9 C9         32.6107   22.6741    1.4835 C.ar      12 UNK        -0.0807 
     10 C10        33.4684   23.3539    2.3544 C.ar      12 UNK        -0.0894 
     11 C11        34.1189   24.5202    1.9424 C.ar      12 UNK        -0.0804 
     12 C12        33.8965   25.0120    0.6539 C.ar      12 UNK        -0.0824 
     13 C13        33.0210   24.3570   -0.2168 C.ar      12 UNK        -0.0762 
     14 C14        32.4084   23.1676    0.1898 C.ar      12 UNK        -0.0782 
     15 C15        32.7011   24.9706   -1.5737 C.3       12 UNK         0.0230 
     16 S16        31.0664   25.7875   -1.5883 S.3       12 UNK        -0.2608 
     17 C17        31.1391   26.8170   -0.0781 C.3       12 UNK        -0.0989 
     18 CA         30.1344   27.9962   -0.0493 C.3       5 UNK         0.0716 
     19 N          28.7813   27.6034   -0.4684 N.am      5 UNK        -0.4135 
     20 C          27.6923   28.3852   -0.4887 C.2       4 UNK         0.5031 
     21 O          27.6584   29.5346   -0.0503 O.2       4 UNK        -0.5229 
     22 CA         26.4290   27.7899   -1.1148 C.3       4 UNK         0.0329 
     23 CB         26.6867   27.2423   -2.5332 C.3       4 UNK        -0.2001 
     24 N          25.8297   26.7643   -0.2552 N.am      4 UNK        -0.4303 
     25 C          24.5138   26.4947   -0.2472 C.2       3 UNK         0.5044 
     26 O          23.6997   27.1026   -0.9447 O.2       3 UNK        -0.5152 
     27 CA         23.9835   25.3613    0.6516 C.3       3 UNK         0.0319 
     28 CB         23.3605   24.2435   -0.2033 C.3       3 UNK        -0.2001 
     29 N          24.9989   24.7742    1.5258 N.am      3 UNK        -0.4354 
     30 C          25.2636   25.1945    2.7720 C.2       2 UNK         0.4964 
     31 O          24.6833   26.1365    3.3121 O.2       2 UNK        -0.5047 
     32 CA         26.3624   24.4493    3.5575 C.3       2 UNK         0.0288 
     33 CB         25.7355   23.4001    4.4897 C.3       2 UNK        -0.2113 
     34 N          27.3701   23.7977    2.7163 N.am      2 UNK        -0.4145 
     35 C          28.1480   24.4235    1.8237 C.2       1 UNK         0.5006 
     36 O          28.1343   25.6450    1.6544 O.2       1 UNK        -0.5103 
     37 C          30.1748   28.6714    1.3366 C.2       5 UNK         0.5055 
     38 O          30.8457   29.6913    1.4937 O.2       5 UNK        -0.5220 
     39 N          29.4093   28.1202    2.2898 N.am      6 UNK        -0.4450 
     40 CA         29.2687   28.6118    3.6628 C.3       6 UNK         0.0367 
     41 CB         28.3828   27.6386    4.4538 C.3       6 UNK        -0.1929 
     42 C          28.7202   30.0467    3.7796 C.2       6 UNK         0.5070 
     43 O          28.9954   30.7111    4.7790 O.2       6 UNK        -0.5237 
     44 N          27.9603   30.5064    2.7743 N.am      7 UNK        -0.4739 
     45 CA         27.4562   31.8790    2.6970 C.3       7 UNK         0.0276 
     46 CB         26.1733   31.9089    1.8504 C.3       7 UNK        -0.1927 
     47 C          28.5028   32.8547    2.1317 C.2       7 UNK         0.5013 
     48 O          28.4024   34.0525    2.4007 O.2       7 UNK        -0.5193 
     49 N          29.4791   32.3443    1.3659 N.am      8 UNK        -0.4253 
     50 CA         30.5929   33.1249    0.8260 C.3       8 UNK         0.0242 
     51 CB         31.1408   32.4582   -0.4472 C.3       8 UNK        -0.2000 
     52 C          31.6981   33.3155    1.8753 C.2       8 UNK         0.4948 
     53 O          32.2026   34.4304    2.0175 O.2       8 UNK        -0.5275 
     54 N          32.0364   32.2459    2.6070 N.am      9 UNK        -0.4246 
     55 CA         32.9844   32.2632    3.7181 C.3       9 UNK         0.0261 
     56 CB         34.4295   32.1866    3.1910 C.3       9 UNK        -0.1959 
     57 C          32.6837   31.0801    4.6395 C.2       9 UNK         0.5033 
     58 O          32.4212   29.9828    4.1466 O.2       9 UNK        -0.5390 
     59 N          32.7778   31.2940    5.9574 N.am      10 UNK        -0.4215 
     60 CA         32.5567   30.2764    6.9916 C.3       10 UNK         0.0240 
     61 CB         32.1784   30.9785    8.3099 C.3       10 UNK        -0.1982 
     62 C          33.7672   29.3311    7.1450 C.2       10 UNK         0.4970 
     63 O          34.3486   29.2385    8.2282 O.2       10 UNK        -0.4916 
     64 N          34.1437   28.6735    6.0444 N.am      11 UNK        -0.4279 
     65 CA         35.2354   27.6973    5.9569 C.3       11 UNK         0.1003 
     66 C          34.9436   26.3612    6.6993 C.2       11 UNK         0.5709 
     67 N          35.9739   25.5712    6.9720 N.am      11 UNK        -0.7358 
     68 O          33.8034   26.0223    7.0132 O.2       11 UNK        -0.4999 
     69 C69        35.6725   27.4871    4.4826 C.3       12 UNK        -0.0954 
     70 S70        34.3473   26.8595    3.3930 S.3       12 UNK        -0.2268 
     71 C71        35.0521   25.2610    2.8873 C.3       12 UNK         0.0203 
     72 H72        28.0534   23.9985   -2.9616 H         1 UNK         0.0888 
     73 H73        27.0375   22.5558   -2.9426 H         1 UNK         0.0888 
     74 H74        26.3189   24.1400   -2.6507 H         1 UNK         0.0888 
     75 H75        29.3248   24.0728   -1.1097 H         1 UNK         0.3017 
     76 H76        30.0244   24.0283    0.9697 H         1 UNK         0.0873 
     77 H77        29.6150   21.5010    0.4911 H         1 UNK         0.0745 
     78 H78        28.2377   21.5961    1.5250 H         1 UNK         0.0745 
     79 H79        31.7287   20.7291    1.1300 H         1 UNK         0.0705 
     80 H80        32.5131   20.8890    2.6762 H         1 UNK         0.0705 
     81 H81        33.6217   22.9780    3.3570 H         1 UNK         0.1334 
     82 H82        34.3799   25.9292    0.3453 H         1 UNK         0.1417 
     83 H83        31.7352   22.6550   -0.4837 H         1 UNK         0.1562 
     84 H84        32.7208   24.1964   -2.3420 H         1 UNK         0.0748 
     85 H85        33.4635   25.6989   -1.8551 H         1 UNK         0.0748 
     86 H86        32.1527   27.2095    0.0251 H         1 UNK         0.0940 
     87 H87        30.9852   26.1588    0.7791 H         1 UNK         0.0940 
     88 H88        30.4705   28.7388   -0.7759 H         1 UNK         0.0703 
     89 H89        28.7070   26.6670   -0.8331 H         1 UNK         0.3081 
     90 H90        25.7263   28.6213   -1.2079 H         1 UNK         0.0719 
     91 H91        25.7592   26.9267   -3.0112 H         1 UNK         0.0809 
     92 H92        27.1301   28.0088   -3.1705 H         1 UNK         0.0809 
     93 H93        27.3658   26.3913   -2.5302 H         1 UNK         0.0809 
     94 H94        26.4446   26.2833    0.3916 H         1 UNK         0.2990 
     95 H95        23.1863   25.7883    1.2638 H         1 UNK         0.0690 
     96 H96        22.5312   24.6237   -0.8013 H         1 UNK         0.0788 
     97 H97        22.9661   23.4399    0.4189 H         1 UNK         0.0788 
     98 H98        24.0842   23.8094   -0.8935 H         1 UNK         0.0788 
     99 H99        25.5363   24.0060    1.1333 H         1 UNK         0.2993 
    100 H100       26.8755   25.1868    4.1751 H         1 UNK         0.0949 
    101 H101       25.2261   22.6153    3.9288 H         1 UNK         0.0767 
    102 H102       26.4890   22.9286    5.1211 H         1 UNK         0.0767 
    103 H103       24.9996   23.8569    5.1533 H         1 UNK         0.0767 
    104 H104       27.4383   22.7927    2.7859 H         1 UNK         0.3013 
    105 H105       28.8877   27.2782    2.0519 H         1 UNK         0.3121 
    106 H106       30.2617   28.6041    4.1135 H         1 UNK         0.0774 
    107 H107       27.3804   27.5756    4.0282 H         1 UNK         0.0815 
    108 H108       28.2788   27.9585    5.4916 H         1 UNK         0.0815 
    109 H109       28.8122   26.6368    4.4661 H         1 UNK         0.0815 
    110 H110       27.8048   29.9209    1.9596 H         1 UNK         0.2987 
    111 H111       27.2001   32.2197    3.7029 H         1 UNK         0.0949 
    112 H112       26.3656   31.6450    0.8102 H         1 UNK         0.0806 
    113 H113       25.4230   31.2204    2.2393 H         1 UNK         0.0806 
    114 H114       25.7309   32.9060    1.8533 H         1 UNK         0.0806 
    115 H115       29.5258   31.3397    1.2421 H         1 UNK         0.3010 
    116 H116       30.2231   34.1141    0.5462 H         1 UNK         0.0829 
    117 H117       30.3578   32.3262   -1.1940 H         1 UNK         0.0813 
    118 H118       31.9202   33.0729   -0.8993 H         1 UNK         0.0813 
    119 H119       31.5789   31.4810   -0.2450 H         1 UNK         0.0813 
    120 H120       31.5979   31.3442    2.4258 H         1 UNK         0.3038 
    121 H121       32.8529   33.1889    4.2828 H         1 UNK         0.0769 
    122 H122       34.5924   31.2826    2.6024 H         1 UNK         0.0811 
    123 H123       35.1464   32.1751    4.0130 H         1 UNK         0.0811 
    124 H124       34.6717   33.0435    2.5624 H         1 UNK         0.0811 
    125 H125       33.0479   32.2112    6.2832 H         1 UNK         0.3204 
    126 H126       31.7062   29.6584    6.6942 H         1 UNK         0.0748 
    127 H127       32.9810   31.6229    8.6710 H         1 UNK         0.0771 
    128 H128       31.2839   31.5902    8.1900 H         1 UNK         0.0771 
    129 H129       31.9661   30.2502    9.0938 H         1 UNK         0.0771 
    130 H130       33.5992   28.8146    5.1981 H         1 UNK         0.2980 
    131 H131       36.0842   28.1466    6.4763 H         1 UNK         0.0545 
    132 H132       35.8071   24.6979    7.4469 H         1 UNK         0.3459 
    133 H133       36.9145   25.8327    6.7214 H         1 UNK         0.3459 
    134 H134       36.0102   28.4383    4.0682 H         1 UNK         0.0616 
    135 H135       36.5403   26.8276    4.4322 H         1 UNK         0.0616 
    136 H136       35.2579   24.6632    3.7768 H         1 UNK         0.0634 
    137 H137       36.0097   25.4273    2.3918 H         1 UNK         0.0634 
@<TRIPOS>BOND
     1    1    2 1    
     2    1   72 1    
     3    1   73 1    
     4    1   74 1    
     5    2    3 2    
     6    2    4 am   BACKBONE|DICT|INTERRES
     7    4    5 1    
     8    4   75 1    
     9    5    6 1    
    10    5   35 1    
    11    5   76 1    
    12    6    7 1    
    13    6   77 1    
    14    6   78 1    
    15    7    8 1    
    16    8    9 1    
    17    8   79 1    
    18    8   80 1    
    19    9   10 ar   
    20    9   14 ar   
    21   10   11 ar   
    22   10   81 1    
    23   11   12 ar   
    24   11   71 1    
    25   12   13 ar   
    26   12   82 1    
    27   13   14 ar   
    28   13   15 1    
    29   14   83 1    
    30   15   16 1    
    31   15   84 1    
    32   15   85 1    
    33   16   17 1    
    34   17   18 1    
    35   17   86 1    
    36   17   87 1    
    37   18   19 1    
    38   18   37 1    
    39   18   88 1    
    40   19   20 am   BACKBONE|DICT|INTERRES
    41   19   89 1    
    42   20   21 2    
    43   20   22 1    
    44   22   23 1    
    45   22   24 1    
    46   22   90 1    
    47   23   91 1    
    48   23   92 1    
    49   23   93 1    
    50   24   25 am   BACKBONE|DICT|INTERRES
    51   24   94 1    
    52   25   26 2    
    53   25   27 1    
    54   27   28 1    
    55   27   29 1    
    56   27   95 1    
    57   28   96 1    
    58   28   97 1    
    59   28   98 1    
    60   29   30 am   BACKBONE|DICT|INTERRES
    61   29   99 1    
    62   30   31 2    
    63   30   32 1    
    64   32   33 1    
    65   32   34 1    
    66   32  100 1    
    67   33  101 1    
    68   33  102 1    
    69   33  103 1    
    70   34   35 am   BACKBONE|DICT|INTERRES
    71   34  104 1    
    72   35   36 2    
    73   37   38 2    
    74   37   39 am   BACKBONE|DICT|INTERRES
    75   39   40 1    
    76   39  105 1    
    77   40   41 1    
    78   40   42 1    
    79   40  106 1    
    80   41  107 1    
    81   41  108 1    
    82   41  109 1    
    83   42   43 2    
    84   42   44 am   BACKBONE|DICT|INTERRES
    85   44   45 1    
    86   44  110 1    
    87   45   46 1    
    88   45   47 1    
    89   45  111 1    
    90   46  112 1    
    91   46  113 1    
    92   46  114 1    
    93   47   48 2    
    94   47   49 am   BACKBONE|DICT|INTERRES
    95   49   50 1    
    96   49  115 1    
    97   50   51 1    
    98   50   52 1    
    99   50  116 1    
   100   51  117 1    
   101   51  118 1    
   102   51  119 1    
   103   52   53 2    
   104   52   54 am   BACKBONE|DICT|INTERRES
   105   54   55 1    
   106   54  120 1    
   107   55   56 1    
   108   55   57 1    
   109   55  121 1    
   110   56  122 1    
   111   56  123 1    
   112   56  124 1    
   113   57   58 2    
   114   57   59 am   BACKBONE|DICT|INTERRES
   115   59   60 1    
   116   59  125 1    
   117   60   61 1    
   118   60   62 1    
   119   60  126 1    
   120   61  127 1    
   121   61  128 1    
   122   61  129 1    
   123   62   63 2    
   124   62   64 am   BACKBONE|DICT|INTERRES
   125   64   65 1    
   126   64  130 1    
   127   65   66 1    
   128   65   69 1    
   129   65  131 1    
   130   66   67 am   BACKBONE|DICT|INTERRES
   131   66   68 2    
   132   67  132 1    
   133   67  133 1    
   134   69   70 1    
   135   69  134 1    
   136   69  135 1    
   137   70   71 1    
   138   71  136 1    
   139   71  137 1    
@<TRIPOS>SUBSTRUCTURE
     1 UNK         1 GROUP             0       ****    0 ROOT    
