@<TRIPOS>MOLECULE
3R136
137   139    1
SMALL
USER_CHARGES


@<TRIPOS>ATOM
      1 CA         27.6726   24.0514    5.1262 C.3       0 UNK        -0.1979 
      2 C          27.5910   23.3004    3.8091 C.2       0 UNK         0.4864 
      3 O          27.0437   22.1972    3.7590 O.2       0 UNK        -0.5359 
      4 N          28.1026   23.9025    2.7298 N.am      1 UNK        -0.4318 
      5 CA         28.0811   23.3654    1.3666 C.3       1 UNK         0.0824 
      6 C6         29.2937   23.8777    0.5518 C.3       12 UNK        -0.0944 
      7 S7         30.8498   23.0658    1.0649 S.3       12 UNK        -0.2672 
      8 C8         31.6087   24.2889    2.1957 C.3       12 UNK         0.0333 
      9 C9         32.1824   25.5561    1.5540 C.ar      12 UNK        -0.0807 
     10 C10        32.8445   26.4742    2.3765 C.ar      12 UNK        -0.0894 
     11 C11        33.3727   27.6637    1.8624 C.ar      12 UNK        -0.0804 
     12 C12        33.2023   27.9449    0.5009 C.ar      12 UNK        -0.0824 
     13 C13        32.5361   27.0461   -0.3337 C.ar      12 UNK        -0.0762 
     14 C14        32.0599   25.8432    0.1895 C.ar      12 UNK        -0.0782 
     15 C15        32.3161   27.3858   -1.7992 C.3       12 UNK         0.0230 
     16 S16        30.8307   28.4167   -2.0209 S.3       12 UNK        -0.2608 
     17 C17        29.4924   27.1902   -1.8210 C.3       12 UNK        -0.0989 
     18 CA         28.1470   27.8221   -1.3696 C.3       5 UNK         0.0716 
     19 N          26.9986   27.0498   -1.8346 N.am      5 UNK        -0.4135 
     20 C          26.4908   27.1033   -3.0703 C.2       4 UNK         0.5031 
     21 O          26.9460   27.8121   -3.9694 O.2       4 UNK        -0.5229 
     22 CA         25.2758   26.2124   -3.3702 C.3       4 UNK         0.0329 
     23 CB         25.7343   24.8484   -3.9120 C.3       4 UNK        -0.2001 
     24 N          24.4102   25.9987   -2.2105 N.am      4 UNK        -0.4303 
     25 C          23.5748   26.9094   -1.6871 C.2       3 UNK         0.5044 
     26 O          23.4739   28.0613   -2.1111 O.2       3 UNK        -0.5152 
     27 CA         22.6704   26.4564   -0.5218 C.3       3 UNK         0.0319 
     28 CB         21.1871   26.5377   -0.9225 C.3       3 UNK        -0.2001 
     29 N          22.9700   25.0834   -0.1064 N.am      3 UNK        -0.4354 
     30 C          23.8048   24.7526    0.8856 C.2       2 UNK         0.4964 
     31 O          24.2458   25.5591    1.7062 O.2       2 UNK        -0.5047 
     32 CA         24.2349   23.2729    0.9688 C.3       2 UNK         0.0288 
     33 CB         23.9294   22.4498   -0.3052 C.3       2 UNK        -0.2113 
     34 N          25.6516   23.1343    1.3225 N.am      2 UNK        -0.4145 
     35 C          26.7181   23.6701    0.7055 C.2       1 UNK         0.5006 
     36 O          26.6530   24.3689   -0.3110 O.2       1 UNK        -0.5103 
     37 C          28.0137   28.0673    0.1483 C.2       5 UNK         0.5055 
     38 O          26.9189   27.9182    0.6976 O.2       5 UNK        -0.5220 
     39 N          29.1090   28.5003    0.7838 N.am      6 UNK        -0.4450 
     40 CA         29.1737   28.9076    2.1894 C.3       6 UNK         0.0367 
     41 CB         30.2984   29.9509    2.3411 C.3       6 UNK        -0.1929 
     42 C          29.3363   27.7149    3.1558 C.2       6 UNK         0.5070 
     43 O          29.0539   26.5694    2.7990 O.2       6 UNK        -0.5237 
     44 N          29.7738   28.0121    4.3838 N.am      7 UNK        -0.4739 
     45 CA         30.0322   27.0562    5.4559 C.3       7 UNK         0.0276 
     46 CB         28.9228   27.1888    6.5145 C.3       7 UNK        -0.1927 
     47 C          31.3890   27.3771    6.0902 C.2       7 UNK         0.5013 
     48 O          31.8084   28.5385    6.0643 O.2       7 UNK        -0.5193 
     49 N          32.0174   26.3546    6.6903 N.am      8 UNK        -0.4253 
     50 CA         33.2587   26.4148    7.4739 C.3       8 UNK         0.0242 
     51 CB         32.9615   26.9961    8.8761 C.3       8 UNK        -0.2000 
     52 C          34.3893   27.1429    6.7205 C.2       8 UNK         0.4948 
     53 O          34.8917   26.6054    5.7332 O.2       8 UNK        -0.5275 
     54 N          34.7326   28.3523    7.1783 N.am      9 UNK        -0.4246 
     55 CA         35.6508   29.2851    6.5277 C.3       9 UNK         0.0261 
     56 CB         36.9535   29.3653    7.3454 C.3       9 UNK        -0.1959 
     57 C          34.9955   30.6672    6.3424 C.2       9 UNK         0.5033 
     58 O          35.7145   31.6561    6.1872 O.2       9 UNK        -0.5390 
     59 N          33.6516   30.7365    6.3402 N.am      10 UNK        -0.4215 
     60 CA         32.8799   31.9831    6.2031 C.3       10 UNK         0.0240 
     61 CB         31.3970   31.7060    6.5001 C.3       10 UNK        -0.1982 
     62 C          33.0354   32.6651    4.8306 C.2       10 UNK         0.4970 
     63 O          32.7522   33.8570    4.7079 O.2       10 UNK        -0.4916 
     64 N          33.5015   31.8992    3.8393 N.am      11 UNK        -0.4279 
     65 CA         33.9403   32.3606    2.5197 C.3       11 UNK         0.1003 
     66 C          35.2385   33.2242    2.5260 C.2       11 UNK         0.5709 
     67 N          36.0090   33.2737    3.6083 N.am      11 UNK        -0.7358 
     68 O          35.5436   33.8735    1.5285 O.2       11 UNK        -0.4999 
     69 C69        34.0340   31.1675    1.5322 C.3       12 UNK        -0.0954 
     70 S70        35.1946   29.8541    2.0646 S.3       12 UNK        -0.2268 
     71 C71        34.0862   28.6144    2.8258 C.3       12 UNK         0.0203 
     72 H72        26.8378   23.7837    5.7735 H         1 UNK         0.0888 
     73 H73        27.6309   25.1250    4.9533 H         1 UNK         0.0888 
     74 H74        28.6010   23.8129    5.6437 H         1 UNK         0.0888 
     75 H75        28.4793   24.8479    2.8097 H         1 UNK         0.3017 
     76 H76        28.1542   22.2763    1.4116 H         1 UNK         0.0873 
     77 H77        29.1663   23.6649   -0.5113 H         1 UNK         0.0745 
     78 H78        29.3805   24.9609    0.6403 H         1 UNK         0.0745 
     79 H79        30.8750   24.5726    2.9502 H         1 UNK         0.0705 
     80 H80        32.4139   23.7837    2.7308 H         1 UNK         0.0705 
     81 H81        32.9522   26.2606    3.4319 H         1 UNK         0.1334 
     82 H82        33.5763   28.8637    0.0747 H         1 UNK         0.1417 
     83 H83        31.5725   25.1475   -0.4762 H         1 UNK         0.1562 
     84 H84        32.2304   26.4799   -2.4016 H         1 UNK         0.0748 
     85 H85        33.1818   27.9266   -2.1849 H         1 UNK         0.0748 
     86 H86        29.7829   26.3919   -1.1429 H         1 UNK         0.0940 
     87 H87        29.3769   26.7104   -2.7943 H         1 UNK         0.0940 
     88 H88        28.0639   28.8130   -1.8220 H         1 UNK         0.0703 
     89 H89        26.5694   26.4498   -1.1379 H         1 UNK         0.3081 
     90 H90        24.6878   26.7073   -4.1463 H         1 UNK         0.0719 
     91 H91        26.3133   24.2937   -3.1720 H         1 UNK         0.0809 
     92 H92        24.8850   24.2314   -4.2062 H         1 UNK         0.0809 
     93 H93        26.3648   24.9709   -4.7939 H         1 UNK         0.0809 
     94 H94        24.4741   25.0961   -1.7639 H         1 UNK         0.2990 
     95 H95        22.8379   27.1469    0.3075 H         1 UNK         0.0690 
     96 H96        20.5376   26.2448   -0.0973 H         1 UNK         0.0788 
     97 H97        20.9612   25.8933   -1.7732 H         1 UNK         0.0788 
     98 H98        20.9120   27.5556   -1.2025 H         1 UNK         0.0788 
     99 H99        22.6201   24.3468   -0.7033 H         1 UNK         0.2993 
    100 H100       23.6672   22.8394    1.7937 H         1 UNK         0.0949 
    101 H101       22.8589   22.4048   -0.5093 H         1 UNK         0.0767 
    102 H102       24.4257   22.8573   -1.1869 H         1 UNK         0.0767 
    103 H103       24.2665   21.4193   -0.1907 H         1 UNK         0.0767 
    104 H104       25.8426   22.6288    2.1825 H         1 UNK         0.3013 
    105 H105       29.9719   28.5486    0.2579 H         1 UNK         0.3121 
    106 H106       28.2311   29.3945    2.4480 H         1 UNK         0.0774 
    107 H107       30.2123   30.7412    1.5951 H         1 UNK         0.0815 
    108 H108       31.2774   29.4908    2.2268 H         1 UNK         0.0815 
    109 H109       30.2731   30.4386    3.3158 H         1 UNK         0.0815 
    110 H110       30.0616   28.9583    4.5923 H         1 UNK         0.2987 
    111 H111       30.0567   26.0381    5.0622 H         1 UNK         0.0949 
    112 H112       28.9683   28.1518    7.0256 H         1 UNK         0.0806 
    113 H113       27.9303   27.1044    6.0732 H         1 UNK         0.0806 
    114 H114       29.0108   26.4121    7.2751 H         1 UNK         0.0806 
    115 H115       31.5957   25.4385    6.6311 H         1 UNK         0.3010 
    116 H116       33.5980   25.3863    7.6077 H         1 UNK         0.0829 
    117 H117       32.2459   26.3706    9.4100 H         1 UNK         0.0813 
    118 H118       33.8631   27.0361    9.4893 H         1 UNK         0.0813 
    119 H119       32.5397   28.0009    8.8291 H         1 UNK         0.0813 
    120 H120       34.2518   28.7019    7.9958 H         1 UNK         0.3038 
    121 H121       35.8991   28.9309    5.5253 H         1 UNK         0.0769 
    122 H122       36.7780   29.7682    8.3435 H         1 UNK         0.0811 
    123 H123       37.6870   30.0079    6.8566 H         1 UNK         0.0811 
    124 H124       37.4116   28.3824    7.4559 H         1 UNK         0.0811 
    125 H125       33.1050   29.8775    6.3896 H         1 UNK         0.3204 
    126 H126       33.2514   32.6835    6.9540 H         1 UNK         0.0748 
    127 H127       31.2660   31.2410    7.4774 H         1 UNK         0.0771 
    128 H128       30.8200   32.6317    6.5016 H         1 UNK         0.0771 
    129 H129       30.9517   31.0481    5.7536 H         1 UNK         0.0771 
    130 H130       33.7242   30.9410    4.0545 H         1 UNK         0.2980 
    131 H131       33.1564   33.0216    2.1454 H         1 UNK         0.0545 
    132 H132       36.8400   33.8426    3.5909 H         1 UNK         0.3459 
    133 H133       35.7870   32.7359    4.4384 H         1 UNK         0.3459 
    134 H134       33.0431   30.7387    1.3894 H         1 UNK         0.0616 
    135 H135       34.3416   31.5139    0.5439 H         1 UNK         0.0616 
    136 H136       33.3460   29.1088    3.4548 H         1 UNK         0.0634 
    137 H137       34.7035   28.0177    3.4973 H         1 UNK         0.0634 
@<TRIPOS>BOND
     1    1    2 1    
     2    1   72 1    
     3    1   73 1    
     4    1   74 1    
     5    2    3 2    
     6    2    4 am   BACKBONE|DICT|INTERRES
     7    4    5 1    
     8    4   75 1    
     9    5    6 1    
    10    5   35 1    
    11    5   76 1    
    12    6    7 1    
    13    6   77 1    
    14    6   78 1    
    15    7    8 1    
    16    8    9 1    
    17    8   79 1    
    18    8   80 1    
    19    9   10 ar   
    20    9   14 ar   
    21   10   11 ar   
    22   10   81 1    
    23   11   12 ar   
    24   11   71 1    
    25   12   13 ar   
    26   12   82 1    
    27   13   14 ar   
    28   13   15 1    
    29   14   83 1    
    30   15   16 1    
    31   15   84 1    
    32   15   85 1    
    33   16   17 1    
    34   17   18 1    
    35   17   86 1    
    36   17   87 1    
    37   18   19 1    
    38   18   37 1    
    39   18   88 1    
    40   19   20 am   BACKBONE|DICT|INTERRES
    41   19   89 1    
    42   20   21 2    
    43   20   22 1    
    44   22   23 1    
    45   22   24 1    
    46   22   90 1    
    47   23   91 1    
    48   23   92 1    
    49   23   93 1    
    50   24   25 am   BACKBONE|DICT|INTERRES
    51   24   94 1    
    52   25   26 2    
    53   25   27 1    
    54   27   28 1    
    55   27   29 1    
    56   27   95 1    
    57   28   96 1    
    58   28   97 1    
    59   28   98 1    
    60   29   30 am   BACKBONE|DICT|INTERRES
    61   29   99 1    
    62   30   31 2    
    63   30   32 1    
    64   32   33 1    
    65   32   34 1    
    66   32  100 1    
    67   33  101 1    
    68   33  102 1    
    69   33  103 1    
    70   34   35 am   BACKBONE|DICT|INTERRES
    71   34  104 1    
    72   35   36 2    
    73   37   38 2    
    74   37   39 am   BACKBONE|DICT|INTERRES
    75   39   40 1    
    76   39  105 1    
    77   40   41 1    
    78   40   42 1    
    79   40  106 1    
    80   41  107 1    
    81   41  108 1    
    82   41  109 1    
    83   42   43 2    
    84   42   44 am   BACKBONE|DICT|INTERRES
    85   44   45 1    
    86   44  110 1    
    87   45   46 1    
    88   45   47 1    
    89   45  111 1    
    90   46  112 1    
    91   46  113 1    
    92   46  114 1    
    93   47   48 2    
    94   47   49 am   BACKBONE|DICT|INTERRES
    95   49   50 1    
    96   49  115 1    
    97   50   51 1    
    98   50   52 1    
    99   50  116 1    
   100   51  117 1    
   101   51  118 1    
   102   51  119 1    
   103   52   53 2    
   104   52   54 am   BACKBONE|DICT|INTERRES
   105   54   55 1    
   106   54  120 1    
   107   55   56 1    
   108   55   57 1    
   109   55  121 1    
   110   56  122 1    
   111   56  123 1    
   112   56  124 1    
   113   57   58 2    
   114   57   59 am   BACKBONE|DICT|INTERRES
   115   59   60 1    
   116   59  125 1    
   117   60   61 1    
   118   60   62 1    
   119   60  126 1    
   120   61  127 1    
   121   61  128 1    
   122   61  129 1    
   123   62   63 2    
   124   62   64 am   BACKBONE|DICT|INTERRES
   125   64   65 1    
   126   64  130 1    
   127   65   66 1    
   128   65   69 1    
   129   65  131 1    
   130   66   67 am   BACKBONE|DICT|INTERRES
   131   66   68 2    
   132   67  132 1    
   133   67  133 1    
   134   69   70 1    
   135   69  134 1    
   136   69  135 1    
   137   70   71 1    
   138   71  136 1    
   139   71  137 1    
@<TRIPOS>SUBSTRUCTURE
     1 UNK         1 GROUP             0       ****    0 ROOT    
