@<TRIPOS>MOLECULE
3R136
137   139    1
SMALL
USER_CHARGES


@<TRIPOS>ATOM
      1 CA         28.0528   23.3378    6.2558 C.3       0 UNK        -0.1979 
      2 C          27.8145   23.4397    4.7572 C.2       0 UNK         0.4864 
      3 O          26.6653   23.5229    4.3208 O.2       0 UNK        -0.5359 
      4 N          28.8933   23.4556    3.9623 N.am      1 UNK        -0.4318 
      5 CA         28.8598   23.5580    2.4957 C.3       1 UNK         0.0824 
      6 C6         30.2320   23.2600    1.8531 C.3       12 UNK        -0.0944 
      7 S7         31.0103   21.7079    2.4310 S.3       12 UNK        -0.2672 
      8 C8         32.2788   21.3861    1.1528 C.3       12 UNK         0.0333 
      9 C9         32.8861   22.6699    0.6044 C.ar      12 UNK        -0.0807 
     10 C10        33.6699   23.4864    1.4234 C.ar      12 UNK        -0.0894 
     11 C11        34.1175   24.7265    0.9619 C.ar      12 UNK        -0.0804 
     12 C12        33.7968   25.1354   -0.3369 C.ar      12 UNK        -0.0824 
     13 C13        33.0159   24.3274   -1.1683 C.ar      12 UNK        -0.0762 
     14 C14        32.5872   23.0812   -0.6972 C.ar      12 UNK        -0.0782 
     15 C15        32.6270   24.8349   -2.5560 C.3       12 UNK         0.0230 
     16 S16        30.9467   24.3525   -3.0904 S.3       12 UNK        -0.2608 
     17 C17        29.8915   25.0613   -1.7780 C.3       12 UNK        -0.0989 
     18 CA         29.0544   26.2705   -2.2713 C.3       5 UNK         0.0716 
     19 N          27.7270   26.2888   -1.6433 N.am      5 UNK        -0.4135 
     20 C          26.6502   26.8440   -2.2185 C.2       4 UNK         0.5031 
     21 O          26.7176   27.5790   -3.2048 O.2       4 UNK        -0.5229 
     22 CA         25.2563   26.4875   -1.6732 C.3       4 UNK         0.0329 
     23 CB         24.6635   25.3053   -2.4640 C.3       4 UNK        -0.2001 
     24 N          25.2188   26.1965   -0.2371 N.am      4 UNK        -0.4303 
     25 C          24.1306   26.3749    0.5317 C.2       3 UNK         0.5044 
     26 O          23.0382   26.7402    0.0943 O.2       3 UNK        -0.5152 
     27 CA         24.2686   26.1253    2.0494 C.3       3 UNK         0.0319 
     28 CB         23.7639   24.7192    2.4100 C.3       3 UNK        -0.2001 
     29 N          25.6370   26.2803    2.5444 N.am      3 UNK        -0.4354 
     30 C          26.3634   27.4029    2.4460 C.2       2 UNK         0.4964 
     31 O          25.8801   28.4890    2.1266 O.2       2 UNK        -0.5047 
     32 CA         27.8830   27.3003    2.6860 C.3       2 UNK         0.0288 
     33 CB         28.3048   28.1813    3.8653 C.3       2 UNK        -0.2113 
     34 N          28.4113   25.9476    2.8825 N.am      2 UNK        -0.4145 
     35 C          28.3444   24.9304    2.0093 C.2       1 UNK         0.5006 
     36 O          27.8611   25.0397    0.8785 O.2       1 UNK        -0.5103 
     37 C          29.8434   27.5898   -2.1339 C.2       5 UNK         0.5055 
     38 O          30.6095   27.9230   -3.0400 O.2       5 UNK        -0.5220 
     39 N          29.6807   28.3050   -1.0137 N.am      6 UNK        -0.4450 
     40 CA         30.4682   29.4879   -0.6550 C.3       6 UNK         0.0367 
     41 CB         31.8945   29.0663   -0.2394 C.3       6 UNK        -0.1929 
     42 C          29.7560   30.2750    0.4562 C.2       6 UNK         0.5070 
     43 O          28.6025   29.9787    0.7695 O.2       6 UNK        -0.5237 
     44 N          30.4457   31.2727    1.0231 N.am      7 UNK        -0.4739 
     45 CA         29.9679   32.0862    2.1427 C.3       7 UNK         0.0276 
     46 CB         30.7747   33.3945    2.1841 C.3       7 UNK        -0.1927 
     47 C          30.1082   31.3461    3.4822 C.2       7 UNK         0.5013 
     48 O          31.0680   30.5925    3.6696 O.2       7 UNK        -0.5193 
     49 N          29.1927   31.6335    4.4189 N.am      8 UNK        -0.4253 
     50 CA         29.1609   31.0686    5.7758 C.3       8 UNK         0.0242 
     51 CB         27.8854   31.5326    6.4961 C.3       8 UNK        -0.2000 
     52 C          30.4063   31.3864    6.6178 C.2       8 UNK         0.4948 
     53 O          30.8199   30.5523    7.4232 O.2       8 UNK        -0.5275 
     54 N          31.0084   32.5595    6.3817 N.am      9 UNK        -0.4246 
     55 CA         32.2718   32.9829    6.9888 C.3       9 UNK         0.0261 
     56 CB         32.4938   34.4756    6.6932 C.3       9 UNK        -0.1959 
     57 C          33.4882   32.1577    6.5255 C.2       9 UNK         0.5033 
     58 O          34.4956   32.1404    7.2346 O.2       9 UNK        -0.5390 
     59 N          33.3866   31.5082    5.3571 N.am      10 UNK        -0.4215 
     60 CA         34.4366   30.6755    4.7782 C.3       10 UNK         0.0240 
     61 CB         34.5373   30.9519    3.2667 C.3       10 UNK        -0.1982 
     62 C          34.1763   29.1872    5.0452 C.2       10 UNK         0.4970 
     63 O          35.0713   28.5075    5.5496 O.2       10 UNK        -0.4916 
     64 N          32.9816   28.7067    4.6748 N.am      11 UNK        -0.4279 
     65 CA         32.6514   27.2726    4.5771 C.3       11 UNK         0.1003 
     66 C          31.3644   26.8788    5.3576 C.2       11 UNK         0.5709 
     67 N          30.8858   27.6848    6.2970 N.am      11 UNK        -0.7358 
     68 O          30.7775   25.8266    5.1083 O.2       11 UNK        -0.4999 
     69 C69        32.6083   26.7941    3.0970 C.3       12 UNK        -0.0954 
     70 S70        34.0978   27.2430    2.1316 S.3       12 UNK        -0.2268 
     71 C71        34.9191   25.6387    1.8789 C.3       12 UNK         0.0203 
     72 H72        27.6287   22.4111    6.6412 H         1 UNK         0.0888 
     73 H73        27.5754   24.1722    6.7687 H         1 UNK         0.0888 
     74 H74        29.1152   23.3552    6.4996 H         1 UNK         0.0888 
     75 H75        29.8163   23.4045    4.3723 H         1 UNK         0.3017 
     76 H76        28.1510   22.8096    2.1348 H         1 UNK         0.0873 
     77 H77        30.9270   24.0778    2.0530 H         1 UNK         0.0745 
     78 H78        30.1207   23.2049    0.7687 H         1 UNK         0.0745 
     79 H79        33.0654   20.7614    1.5782 H         1 UNK         0.0705 
     80 H80        31.8240   20.8026    0.3508 H         1 UNK         0.0705 
     81 H81        33.8875   23.1739    2.4358 H         1 UNK         0.1334 
     82 H82        34.1330   26.1022   -0.6866 H         1 UNK         0.1417 
     83 H83        31.9748   22.4500   -1.3261 H         1 UNK         0.1562 
     84 H84        33.3474   24.4541   -3.2807 H         1 UNK         0.0748 
     85 H85        32.6946   25.9236   -2.5943 H         1 UNK         0.0748 
     86 H86        30.4753   25.3087   -0.8890 H         1 UNK         0.0940 
     87 H87        29.2317   24.2499   -1.4660 H         1 UNK         0.0940 
     88 H88        28.8808   26.1324   -3.3415 H         1 UNK         0.0703 
     89 H89        27.6309   25.7167   -0.8088 H         1 UNK         0.3081 
     90 H90        24.6338   27.3659   -1.8591 H         1 UNK         0.0719 
     91 H91        25.2150   24.3827   -2.2791 H         1 UNK         0.0809 
     92 H92        23.6205   25.1304   -2.1999 H         1 UNK         0.0809 
     93 H93        24.6940   25.4955   -3.5379 H         1 UNK         0.0809 
     94 H94        26.0751   25.8817    0.2033 H         1 UNK         0.2990 
     95 H95        23.6442   26.8597    2.5623 H         1 UNK         0.0690 
     96 H96        23.7861   24.5535    3.4875 H         1 UNK         0.0788 
     97 H97        24.3679   23.9416    1.9402 H         1 UNK         0.0788 
     98 H98        22.7334   24.5769    2.0814 H         1 UNK         0.0788 
     99 H99        26.0967   25.4376    2.8633 H         1 UNK         0.2993 
    100 H100       28.3567   27.6885    1.7857 H         1 UNK         0.0949 
    101 H101       29.3840   28.3244    3.8721 H         1 UNK         0.0767 
    102 H102       27.8556   29.1723    3.7909 H         1 UNK         0.0767 
    103 H103       28.0051   27.7545    4.8230 H         1 UNK         0.0767 
    104 H104       28.8522   25.7639    3.7753 H         1 UNK         0.3013 
    105 H105       28.9616   28.0542   -0.3486 H         1 UNK         0.3121 
    106 H106       30.5270   30.1445   -1.5255 H         1 UNK         0.0774 
    107 H107       32.3902   28.4836   -1.0156 H         1 UNK         0.0815 
    108 H108       31.8719   28.4601    0.6637 H         1 UNK         0.0815 
    109 H109       32.5338   29.9266   -0.0410 H         1 UNK         0.0815 
    110 H110       31.3994   31.4283    0.7322 H         1 UNK         0.2987 
    111 H111       28.9147   32.3253    1.9770 H         1 UNK         0.0949 
    112 H112       31.8361   33.2107    2.3578 H         1 UNK         0.0806 
    113 H113       30.6795   33.9485    1.2499 H         1 UNK         0.0806 
    114 H114       30.4226   34.0497    2.9820 H         1 UNK         0.0806 
    115 H115       28.4487   32.2759    4.1856 H         1 UNK         0.3010 
    116 H116       29.1214   29.9834    5.6876 H         1 UNK         0.0829 
    117 H117       26.9902   31.2098    5.9641 H         1 UNK         0.0813 
    118 H118       27.8304   31.1122    7.5014 H         1 UNK         0.0813 
    119 H119       27.8470   32.6182    6.5942 H         1 UNK         0.0813 
    120 H120       30.5894   33.1873    5.7114 H         1 UNK         0.3038 
    121 H121       32.1850   32.8560    8.0701 H         1 UNK         0.0769 
    122 H122       32.5747   34.6685    5.6226 H         1 UNK         0.0811 
    123 H123       33.4138   34.8326    7.1584 H         1 UNK         0.0811 
    124 H124       31.6788   35.0845    7.0852 H         1 UNK         0.0811 
    125 H125       32.5023   31.5210    4.8627 H         1 UNK         0.3204 
    126 H126       35.4025   30.9285    5.2210 H         1 UNK         0.0748 
    127 H127       34.7864   31.9950    3.0719 H         1 UNK         0.0771 
    128 H128       35.3186   30.3413    2.8118 H         1 UNK         0.0771 
    129 H129       33.6071   30.7278    2.7433 H         1 UNK         0.0771 
    130 H130       32.2874   29.3418    4.2869 H         1 UNK         0.2980 
    131 H131       33.4348   26.6932    5.0674 H         1 UNK         0.0545 
    132 H132       30.0604   27.4058    6.8004 H         1 UNK         0.3459 
    133 H133       31.3383   28.5583    6.5271 H         1 UNK         0.3459 
    134 H134       32.4745   25.7125    3.0553 H         1 UNK         0.0616 
    135 H135       31.7392   27.2211    2.5953 H         1 UNK         0.0616 
    136 H136       35.0931   25.1725    2.8499 H         1 UNK         0.0634 
    137 H137       35.9007   25.8117    1.4362 H         1 UNK         0.0634 
@<TRIPOS>BOND
     1    1    2 1    
     2    1   72 1    
     3    1   73 1    
     4    1   74 1    
     5    2    3 2    
     6    2    4 am   BACKBONE|DICT|INTERRES
     7    4    5 1    
     8    4   75 1    
     9    5    6 1    
    10    5   35 1    
    11    5   76 1    
    12    6    7 1    
    13    6   77 1    
    14    6   78 1    
    15    7    8 1    
    16    8    9 1    
    17    8   79 1    
    18    8   80 1    
    19    9   10 ar   
    20    9   14 ar   
    21   10   11 ar   
    22   10   81 1    
    23   11   12 ar   
    24   11   71 1    
    25   12   13 ar   
    26   12   82 1    
    27   13   14 ar   
    28   13   15 1    
    29   14   83 1    
    30   15   16 1    
    31   15   84 1    
    32   15   85 1    
    33   16   17 1    
    34   17   18 1    
    35   17   86 1    
    36   17   87 1    
    37   18   19 1    
    38   18   37 1    
    39   18   88 1    
    40   19   20 am   BACKBONE|DICT|INTERRES
    41   19   89 1    
    42   20   21 2    
    43   20   22 1    
    44   22   23 1    
    45   22   24 1    
    46   22   90 1    
    47   23   91 1    
    48   23   92 1    
    49   23   93 1    
    50   24   25 am   BACKBONE|DICT|INTERRES
    51   24   94 1    
    52   25   26 2    
    53   25   27 1    
    54   27   28 1    
    55   27   29 1    
    56   27   95 1    
    57   28   96 1    
    58   28   97 1    
    59   28   98 1    
    60   29   30 am   BACKBONE|DICT|INTERRES
    61   29   99 1    
    62   30   31 2    
    63   30   32 1    
    64   32   33 1    
    65   32   34 1    
    66   32  100 1    
    67   33  101 1    
    68   33  102 1    
    69   33  103 1    
    70   34   35 am   BACKBONE|DICT|INTERRES
    71   34  104 1    
    72   35   36 2    
    73   37   38 2    
    74   37   39 am   BACKBONE|DICT|INTERRES
    75   39   40 1    
    76   39  105 1    
    77   40   41 1    
    78   40   42 1    
    79   40  106 1    
    80   41  107 1    
    81   41  108 1    
    82   41  109 1    
    83   42   43 2    
    84   42   44 am   BACKBONE|DICT|INTERRES
    85   44   45 1    
    86   44  110 1    
    87   45   46 1    
    88   45   47 1    
    89   45  111 1    
    90   46  112 1    
    91   46  113 1    
    92   46  114 1    
    93   47   48 2    
    94   47   49 am   BACKBONE|DICT|INTERRES
    95   49   50 1    
    96   49  115 1    
    97   50   51 1    
    98   50   52 1    
    99   50  116 1    
   100   51  117 1    
   101   51  118 1    
   102   51  119 1    
   103   52   53 2    
   104   52   54 am   BACKBONE|DICT|INTERRES
   105   54   55 1    
   106   54  120 1    
   107   55   56 1    
   108   55   57 1    
   109   55  121 1    
   110   56  122 1    
   111   56  123 1    
   112   56  124 1    
   113   57   58 2    
   114   57   59 am   BACKBONE|DICT|INTERRES
   115   59   60 1    
   116   59  125 1    
   117   60   61 1    
   118   60   62 1    
   119   60  126 1    
   120   61  127 1    
   121   61  128 1    
   122   61  129 1    
   123   62   63 2    
   124   62   64 am   BACKBONE|DICT|INTERRES
   125   64   65 1    
   126   64  130 1    
   127   65   66 1    
   128   65   69 1    
   129   65  131 1    
   130   66   67 am   BACKBONE|DICT|INTERRES
   131   66   68 2    
   132   67  132 1    
   133   67  133 1    
   134   69   70 1    
   135   69  134 1    
   136   69  135 1    
   137   70   71 1    
   138   71  136 1    
   139   71  137 1    
@<TRIPOS>SUBSTRUCTURE
     1 UNK         1 GROUP             0       ****    0 ROOT    
