@<TRIPOS>MOLECULE
3R136
137   139    1
SMALL
USER_CHARGES


@<TRIPOS>ATOM
      1 CA         31.2654   21.6488   -3.6219 C.3       0 UNK        -0.1979 
      2 C          30.7052   22.9042   -2.9698 C.2       0 UNK         0.4864 
      3 O          30.3451   23.8491   -3.6727 O.2       0 UNK        -0.5359 
      4 N          30.6317   22.9207   -1.6320 N.am      1 UNK        -0.4318 
      5 CA         30.0985   24.0294   -0.8306 C.3       1 UNK         0.0824 
      6 C6         30.5030   23.9011    0.6601 C.3       12 UNK        -0.0944 
      7 S7         29.9166   22.3608    1.4581 S.3       12 UNK        -0.2672 
      8 C8         30.9059   22.3214    2.9858 C.3       12 UNK         0.0333 
      9 C9         30.7611   23.6020    3.7946 C.ar      12 UNK        -0.0807 
     10 C10        31.8464   24.4729    3.9218 C.ar      12 UNK        -0.0894 
     11 C11        31.7204   25.6650    4.6388 C.ar      12 UNK        -0.0804 
     12 C12        30.4941   25.9859    5.2276 C.ar      12 UNK        -0.0824 
     13 C13        29.4027   25.1181    5.1168 C.ar      12 UNK        -0.0762 
     14 C14        29.5441   23.9234    4.4041 C.ar      12 UNK        -0.0782 
     15 C15        28.0762   25.4663    5.7801 C.3       12 UNK         0.0230 
     16 S16        26.7538   25.8167    4.5750 S.3       12 UNK        -0.2608 
     17 C17        27.4084   27.2750    3.6939 C.3       12 UNK        -0.0989 
     18 CA         27.5284   27.0129    2.1673 C.3       5 UNK         0.0716 
     19 N          26.2313   26.7879    1.5115 N.am      5 UNK        -0.4135 
     20 C          25.2497   27.6939    1.3524 C.2       4 UNK         0.5031 
     21 O          25.2914   28.8402    1.8010 O.2       4 UNK        -0.5229 
     22 CA         24.0100   27.2855    0.5336 C.3       4 UNK         0.0329 
     23 CB         24.0959   27.8783   -0.8832 C.3       4 UNK        -0.2001 
     24 N          23.8221   25.8407    0.4261 N.am      4 UNK        -0.4303 
     25 C          23.4233   25.0316    1.4175 C.2       3 UNK         0.5044 
     26 O          23.0642   25.4292    2.5259 O.2       3 UNK        -0.5152 
     27 CA         23.4443   23.5173    1.1235 C.3       3 UNK         0.0319 
     28 CB         22.0252   23.0067    0.8250 C.3       3 UNK        -0.2001 
     29 N          24.3352   23.1423    0.0157 N.am      3 UNK        -0.4354 
     30 C          25.6647   23.3167    0.0156 C.2       2 UNK         0.4964 
     31 O          26.2803   23.7652    0.9849 O.2       2 UNK        -0.5047 
     32 CA         26.3941   22.9631   -1.2970 C.3       2 UNK         0.0288 
     33 CB         25.8487   23.7792   -2.4907 C.3       2 UNK        -0.2113 
     34 N          27.8538   23.0986   -1.2069 N.am      2 UNK        -0.4145 
     35 C          28.5723   24.2130   -0.9874 C.2       1 UNK         0.5006 
     36 O          28.0919   25.3452   -0.8975 O.2       1 UNK        -0.5103 
     37 C          28.3222   28.1132    1.4296 C.2       5 UNK         0.5055 
     38 O          28.6797   29.1344    2.0230 O.2       5 UNK        -0.5220 
     39 N          28.5550   27.8968    0.1271 N.am      6 UNK        -0.4450 
     40 CA         29.2020   28.8201   -0.8104 C.3       6 UNK         0.0367 
     41 CB         28.8408   28.3962   -2.2463 C.3       6 UNK        -0.1929 
     42 C          30.7252   28.9342   -0.5919 C.2       6 UNK         0.5070 
     43 O          31.5103   28.6769   -1.5058 O.2       6 UNK        -0.5237 
     44 N          31.1119   29.3215    0.6250 N.am      7 UNK        -0.4739 
     45 CA         32.4840   29.5196    1.0835 C.3       7 UNK         0.0276 
     46 CB         33.0935   28.1684    1.4994 C.3       7 UNK        -0.1927 
     47 C          32.4887   30.5700    2.2046 C.2       7 UNK         0.5013 
     48 O          33.1147   30.3714    3.2487 O.2       7 UNK        -0.5193 
     49 N          31.7646   31.6754    1.9719 N.am      8 UNK        -0.4253 
     50 CA         31.5128   32.7683    2.9215 C.3       8 UNK         0.0242 
     51 CB         30.5198   33.7581    2.2902 C.3       8 UNK        -0.2000 
     52 C          32.7671   33.5102    3.4215 C.2       8 UNK         0.4948 
     53 O          32.7028   34.1573    4.4668 O.2       8 UNK        -0.5275 
     54 N          33.8836   33.3940    2.6891 N.am      9 UNK        -0.4246 
     55 CA         35.2062   33.8734    3.0995 C.3       9 UNK         0.0261 
     56 CB         36.1389   33.8753    1.8769 C.3       9 UNK        -0.1959 
     57 C          35.8261   33.0508    4.2482 C.2       9 UNK         0.5033 
     58 O          36.7421   33.5471    4.9064 O.2       9 UNK        -0.5390 
     59 N          35.3345   31.8231    4.4611 N.am      10 UNK        -0.4215 
     60 CA         35.7343   30.9141    5.5290 C.3       10 UNK         0.0240 
     61 CB         36.3473   29.6453    4.8962 C.3       10 UNK        -0.1982 
     62 C          34.5032   30.6525    6.4135 C.2       10 UNK         0.4970 
     63 O          33.9694   31.5970    6.9967 O.2       10 UNK        -0.4916 
     64 N          34.0808   29.3878    6.5067 N.am      11 UNK        -0.4279 
     65 CA         32.9106   28.9083    7.2575 C.3       11 UNK         0.1003 
     66 C          31.5208   29.3723    6.7279 C.2       11 UNK         0.5709 
     67 N          31.4012   29.9365    5.5334 N.am      11 UNK        -0.7358 
     68 O          30.5221   29.2150    7.4256 O.2       11 UNK        -0.4999 
     69 C69        32.9664   27.3670    7.5130 C.3       12 UNK        -0.0954 
     70 S70        33.8615   26.3591    6.2717 S.3       12 UNK        -0.2268 
     71 C71        32.9063   26.6102    4.7455 C.3       12 UNK         0.0203 
     72 H72        32.1492   21.8942   -4.2100 H         1 UNK         0.0888 
     73 H73        31.5470   20.8968   -2.8849 H         1 UNK         0.0888 
     74 H74        30.5236   21.2093   -4.2882 H         1 UNK         0.0888 
     75 H75        30.9469   22.1187   -1.1037 H         1 UNK         0.3017 
     76 H76        30.5542   24.9470   -1.2106 H         1 UNK         0.0873 
     77 H77        30.1305   24.7552    1.2294 H         1 UNK         0.0745 
     78 H78        31.5901   23.9420    0.7454 H         1 UNK         0.0745 
     79 H79        30.5879   21.4728    3.5930 H         1 UNK         0.0705 
     80 H80        31.9500   22.1393    2.7266 H         1 UNK         0.0705 
     81 H81        32.7903   24.2272    3.4543 H         1 UNK         0.1334 
     82 H82        30.3876   26.9115    5.7741 H         1 UNK         0.1417 
     83 H83        28.7003   23.2538    4.3048 H         1 UNK         0.1562 
     84 H84        28.1867   26.3248    6.4448 H         1 UNK         0.0748 
     85 H85        27.7641   24.6326    6.4106 H         1 UNK         0.0748 
     86 H86        28.3797   27.5408    4.1132 H         1 UNK         0.0940 
     87 H87        26.7597   28.1284    3.8964 H         1 UNK         0.0940 
     88 H88        28.1005   26.0925    2.0352 H         1 UNK         0.0703 
     89 H89        26.1058   25.8559    1.1317 H         1 UNK         0.3081 
     90 H90        23.1339   27.7073    1.0311 H         1 UNK         0.0719 
     91 H91        24.1996   28.9638   -0.8464 H         1 UNK         0.0809 
     92 H92        24.9542   27.4889   -1.4329 H         1 UNK         0.0809 
     93 H93        23.1976   27.6609   -1.4613 H         1 UNK         0.0809 
     94 H94        24.0757   25.4161   -0.4533 H         1 UNK         0.2990 
     95 H95        23.8062   23.0186    2.0252 H         1 UNK         0.0690 
     96 H96        22.0103   21.9239    0.6993 H         1 UNK         0.0788 
     97 H97        21.6153   23.4573   -0.0799 H         1 UNK         0.0788 
     98 H98        21.3447   23.2445    1.6441 H         1 UNK         0.0788 
     99 H99        23.8930   22.7581   -0.8075 H         1 UNK         0.2993 
    100 H100       26.2015   21.9062   -1.4883 H         1 UNK         0.0949 
    101 H101       25.9093   24.8536   -2.3134 H         1 UNK         0.0767 
    102 H102       26.4067   23.5631   -3.4020 H         1 UNK         0.0767 
    103 H103       24.8044   23.5421   -2.6953 H         1 UNK         0.0767 
    104 H104       28.3669   22.2289   -1.2161 H         1 UNK         0.3013 
    105 H105       28.2700   26.9987   -0.2655 H         1 UNK         0.3121 
    106 H106       28.7831   29.8151   -0.6460 H         1 UNK         0.0774 
    107 H107       29.2307   27.4052   -2.4835 H         1 UNK         0.0815 
    108 H108       27.7609   28.3742   -2.3942 H         1 UNK         0.0815 
    109 H109       29.2530   29.0934   -2.9768 H         1 UNK         0.0815 
    110 H110       30.3787   29.4749    1.3167 H         1 UNK         0.2987 
    111 H111       33.0831   29.9331    0.2694 H         1 UNK         0.0949 
    112 H112       33.2183   27.5117    0.6384 H         1 UNK         0.0806 
    113 H113       34.0762   28.2923    1.9562 H         1 UNK         0.0806 
    114 H114       32.4499   27.6560    2.2125 H         1 UNK         0.0806 
    115 H115       31.2928   31.7438    1.0813 H         1 UNK         0.3010 
    116 H116       31.0392   32.3279    3.8011 H         1 UNK         0.0829 
    117 H117       30.9228   34.2111    1.3835 H         1 UNK         0.0813 
    118 H118       30.2819   34.5684    2.9810 H         1 UNK         0.0813 
    119 H119       29.5795   33.2692    2.0343 H         1 UNK         0.0813 
    120 H120       33.8363   32.8646    1.8310 H         1 UNK         0.3038 
    121 H121       35.1021   34.9014    3.4532 H         1 UNK         0.0769 
    122 H122       35.7489   34.5088    1.0799 H         1 UNK         0.0811 
    123 H123       36.2784   32.8717    1.4730 H         1 UNK         0.0811 
    124 H124       37.1254   34.2599    2.1398 H         1 UNK         0.0811 
    125 H125       34.5450   31.5066    3.9042 H         1 UNK         0.3204 
    126 H126       36.4884   31.3755    6.1697 H         1 UNK         0.0748 
    127 H127       35.6454   29.1359    4.2337 H         1 UNK         0.0771 
    128 H128       37.2280   29.8961    4.3045 H         1 UNK         0.0771 
    129 H129       36.6715   28.9354    5.6585 H         1 UNK         0.0771 
    130 H130       34.5765   28.6743    5.9930 H         1 UNK         0.2980 
    131 H131       32.9808   29.3820    8.2387 H         1 UNK         0.0545 
    132 H132       32.1996   30.0628    4.9212 H         1 UNK         0.3459 
    133 H133       30.4867   30.2242    5.2275 H         1 UNK         0.3459 
    134 H134       31.9756   26.9357    7.6663 H         1 UNK         0.0616 
    135 H135       33.4868   27.1988    8.4568 H         1 UNK         0.0616 
    136 H136       32.5808   27.6447    4.6559 H         1 UNK         0.0634 
    137 H137       33.5839   26.4413    3.9077 H         1 UNK         0.0634 
@<TRIPOS>BOND
     1    1    2 1    
     2    1   72 1    
     3    1   73 1    
     4    1   74 1    
     5    2    3 2    
     6    2    4 am   BACKBONE|DICT|INTERRES
     7    4    5 1    
     8    4   75 1    
     9    5    6 1    
    10    5   35 1    
    11    5   76 1    
    12    6    7 1    
    13    6   77 1    
    14    6   78 1    
    15    7    8 1    
    16    8    9 1    
    17    8   79 1    
    18    8   80 1    
    19    9   10 ar   
    20    9   14 ar   
    21   10   11 ar   
    22   10   81 1    
    23   11   12 ar   
    24   11   71 1    
    25   12   13 ar   
    26   12   82 1    
    27   13   14 ar   
    28   13   15 1    
    29   14   83 1    
    30   15   16 1    
    31   15   84 1    
    32   15   85 1    
    33   16   17 1    
    34   17   18 1    
    35   17   86 1    
    36   17   87 1    
    37   18   19 1    
    38   18   37 1    
    39   18   88 1    
    40   19   20 am   BACKBONE|DICT|INTERRES
    41   19   89 1    
    42   20   21 2    
    43   20   22 1    
    44   22   23 1    
    45   22   24 1    
    46   22   90 1    
    47   23   91 1    
    48   23   92 1    
    49   23   93 1    
    50   24   25 am   BACKBONE|DICT|INTERRES
    51   24   94 1    
    52   25   26 2    
    53   25   27 1    
    54   27   28 1    
    55   27   29 1    
    56   27   95 1    
    57   28   96 1    
    58   28   97 1    
    59   28   98 1    
    60   29   30 am   BACKBONE|DICT|INTERRES
    61   29   99 1    
    62   30   31 2    
    63   30   32 1    
    64   32   33 1    
    65   32   34 1    
    66   32  100 1    
    67   33  101 1    
    68   33  102 1    
    69   33  103 1    
    70   34   35 am   BACKBONE|DICT|INTERRES
    71   34  104 1    
    72   35   36 2    
    73   37   38 2    
    74   37   39 am   BACKBONE|DICT|INTERRES
    75   39   40 1    
    76   39  105 1    
    77   40   41 1    
    78   40   42 1    
    79   40  106 1    
    80   41  107 1    
    81   41  108 1    
    82   41  109 1    
    83   42   43 2    
    84   42   44 am   BACKBONE|DICT|INTERRES
    85   44   45 1    
    86   44  110 1    
    87   45   46 1    
    88   45   47 1    
    89   45  111 1    
    90   46  112 1    
    91   46  113 1    
    92   46  114 1    
    93   47   48 2    
    94   47   49 am   BACKBONE|DICT|INTERRES
    95   49   50 1    
    96   49  115 1    
    97   50   51 1    
    98   50   52 1    
    99   50  116 1    
   100   51  117 1    
   101   51  118 1    
   102   51  119 1    
   103   52   53 2    
   104   52   54 am   BACKBONE|DICT|INTERRES
   105   54   55 1    
   106   54  120 1    
   107   55   56 1    
   108   55   57 1    
   109   55  121 1    
   110   56  122 1    
   111   56  123 1    
   112   56  124 1    
   113   57   58 2    
   114   57   59 am   BACKBONE|DICT|INTERRES
   115   59   60 1    
   116   59  125 1    
   117   60   61 1    
   118   60   62 1    
   119   60  126 1    
   120   61  127 1    
   121   61  128 1    
   122   61  129 1    
   123   62   63 2    
   124   62   64 am   BACKBONE|DICT|INTERRES
   125   64   65 1    
   126   64  130 1    
   127   65   66 1    
   128   65   69 1    
   129   65  131 1    
   130   66   67 am   BACKBONE|DICT|INTERRES
   131   66   68 2    
   132   67  132 1    
   133   67  133 1    
   134   69   70 1    
   135   69  134 1    
   136   69  135 1    
   137   70   71 1    
   138   71  136 1    
   139   71  137 1    
@<TRIPOS>SUBSTRUCTURE
     1 UNK         1 GROUP             0       ****    0 ROOT    
