@<TRIPOS>MOLECULE
3R136
137   139    1
SMALL
USER_CHARGES


@<TRIPOS>ATOM
      1 CA         34.3625   21.0691   -3.2415 C.3       0 UNK        -0.1979 
      2 C          33.8644   22.1476   -2.2904 C.2       0 UNK         0.4864 
      3 O          34.2345   23.3132   -2.4400 O.2       0 UNK        -0.5359 
      4 N          33.0348   21.7676   -1.3096 N.am      1 UNK        -0.4318 
      5 CA         32.4057   22.6763   -0.3477 C.3       1 UNK         0.0824 
      6 C6         31.8450   21.8923    0.8645 C.3       12 UNK        -0.0944 
      7 S7         31.5366   22.9498    2.3183 S.3       12 UNK        -0.2672 
      8 C8         29.7112   22.9725    2.3289 C.3       12 UNK         0.0333 
      9 C9         29.0640   23.7972    3.4431 C.ar      12 UNK        -0.0807 
     10 C10        29.7520   24.7902    4.1544 C.ar      12 UNK        -0.0894 
     11 C11        29.1116   25.5221    5.1594 C.ar      12 UNK        -0.0804 
     12 C12        27.7733   25.2605    5.4593 C.ar      12 UNK        -0.0824 
     13 C13        27.0600   24.3107    4.7248 C.ar      12 UNK        -0.0762 
     14 C14        27.7137   23.5737    3.7330 C.ar      12 UNK        -0.0782 
     15 C15        25.5738   24.1051    4.9717 C.3       12 UNK         0.0230 
     16 S16        24.5740   25.0171    3.7502 S.3       12 UNK        -0.2608 
     17 C17        24.6924   26.7410    4.3496 C.3       12 UNK        -0.0989 
     18 CA         25.8344   27.5614    3.6841 C.3       5 UNK         0.0716 
     19 N          25.8346   27.5233    2.2170 N.am      5 UNK        -0.4135 
     20 C          24.8820   27.9655    1.3823 C.2       4 UNK         0.5031 
     21 O          23.8629   28.5528    1.7447 O.2       4 UNK        -0.5229 
     22 CA         25.1230   27.7239   -0.1208 C.3       4 UNK         0.0329 
     23 CB         25.6856   28.9927   -0.7826 C.3       4 UNK        -0.2001 
     24 N          26.0529   26.6146   -0.3470 N.am      4 UNK        -0.4303 
     25 C          25.7370   25.3178   -0.2472 C.2       3 UNK         0.5044 
     26 O          24.5754   24.9133   -0.1813 O.2       3 UNK        -0.5152 
     27 CA         26.9047   24.3067   -0.1628 C.3       3 UNK         0.0319 
     28 CB         26.5039   22.9037   -0.6540 C.3       3 UNK        -0.2001 
     29 N          28.1523   24.6998   -0.8333 N.am      3 UNK        -0.4354 
     30 C          28.9905   25.6784   -0.4674 C.2       2 UNK         0.4964 
     31 O          28.7631   26.4603    0.4579 O.2       2 UNK        -0.5047 
     32 CA         30.3032   25.7773   -1.2619 C.3       2 UNK         0.0288 
     33 CB         30.9127   27.1891   -1.2209 C.3       2 UNK        -0.2113 
     34 N          31.2813   24.8239   -0.7399 N.am      2 UNK        -0.4145 
     35 C          31.3161   23.5202   -1.0430 C.2       1 UNK         0.5006 
     36 O          30.5240   22.9769   -1.8189 O.2       1 UNK        -0.5103 
     37 C          25.9765   28.9810    4.2785 C.2       5 UNK         0.5055 
     38 O          25.7355   29.1703    5.4721 O.2       5 UNK        -0.5220 
     39 N          26.4077   29.9430    3.4555 N.am      6 UNK        -0.4450 
     40 CA         26.7492   31.3133    3.8396 C.3       6 UNK         0.0367 
     41 CB         25.4959   32.2059    3.7562 C.3       6 UNK        -0.1929 
     42 C          27.9090   31.8409    2.9755 C.2       6 UNK         0.5070 
     43 O          28.0718   33.0543    2.8414 O.2       6 UNK        -0.5237 
     44 N          28.6839   30.9248    2.3799 N.am      7 UNK        -0.4739 
     45 CA         29.8078   31.2232    1.5011 C.3       7 UNK         0.0276 
     46 CB         29.9034   30.1199    0.4348 C.3       7 UNK        -0.1927 
     47 C          31.0842   31.2959    2.3428 C.2       7 UNK         0.5013 
     48 O          31.6316   30.2509    2.6990 O.2       7 UNK        -0.5193 
     49 N          31.5396   32.5187    2.6469 N.am      8 UNK        -0.4253 
     50 CA         32.7024   32.8120    3.4979 C.3       8 UNK         0.0242 
     51 CB         32.8817   34.3348    3.6036 C.3       8 UNK        -0.2000 
     52 C          34.0218   32.1460    3.0610 C.2       8 UNK         0.4948 
     53 O          34.8752   31.8959    3.9117 O.2       8 UNK        -0.5275 
     54 N          34.1503   31.8252    1.7656 N.am      9 UNK        -0.4246 
     55 CA         35.2510   31.0412    1.1989 C.3       9 UNK         0.0261 
     56 CB         35.1189   31.0223   -0.3329 C.3       9 UNK        -0.1959 
     57 C          35.3395   29.6017    1.7463 C.2       9 UNK         0.5033 
     58 O          36.4383   29.0449    1.7709 O.2       9 UNK        -0.5390 
     59 N          34.2029   29.0324    2.1723 N.am      10 UNK        -0.4215 
     60 CA         34.1135   27.7178    2.8082 C.3       10 UNK         0.0240 
     61 CB         33.0112   26.8905    2.1229 C.3       10 UNK        -0.1982 
     62 C          33.8259   27.8537    4.3099 C.2       10 UNK         0.4970 
     63 O          34.4614   27.1649    5.1088 O.2       10 UNK        -0.4916 
     64 N          32.8663   28.7171    4.6633 N.am      11 UNK        -0.4279 
     65 CA         32.3401   28.8740    6.0262 C.3       11 UNK         0.1003 
     66 C          33.1626   29.8194    6.9454 C.2       11 UNK         0.5709 
     67 N          34.1403   30.5662    6.4487 N.am      11 UNK        -0.7358 
     68 O          32.9167   29.8647    8.1485 O.2       11 UNK        -0.4999 
     69 C69        30.8339   29.2584    6.0185 C.3       12 UNK        -0.0954 
     70 S70        29.7967   28.1796    4.9709 S.3       12 UNK        -0.2268 
     71 C71        29.8598   26.6165    5.8997 C.3       12 UNK         0.0203 
     72 H72        35.4504   21.0155   -3.2115 H         1 UNK         0.0888 
     73 H73        33.9676   20.0859   -2.9862 H         1 UNK         0.0888 
     74 H74        34.0602   21.3011   -4.2624 H         1 UNK         0.0888 
     75 H75        32.7415   20.8025   -1.2575 H         1 UNK         0.3017 
     76 H76        33.1880   23.3483    0.0137 H         1 UNK         0.0873 
     77 H77        30.9454   21.3347    0.5949 H         1 UNK         0.0745 
     78 H78        32.5705   21.1416    1.1826 H         1 UNK         0.0745 
     79 H79        29.3626   23.3514    1.3698 H         1 UNK         0.0705 
     80 H80        29.3615   21.9413    2.4017 H         1 UNK         0.0705 
     81 H81        30.7841   25.0143    3.9260 H         1 UNK         0.1334 
     82 H82        27.2727   25.8365    6.2259 H         1 UNK         0.1417 
     83 H83        27.1585   22.8359    3.1692 H         1 UNK         0.1562 
     84 H84        25.2979   24.4077    5.9831 H         1 UNK         0.0748 
     85 H85        25.3363   23.0428    4.8978 H         1 UNK         0.0748 
     86 H86        24.8124   26.7223    5.4342 H         1 UNK         0.0940 
     87 H87        23.7313   27.2250    4.1679 H         1 UNK         0.0940 
     88 H88        26.7751   27.0850    3.9452 H         1 UNK         0.0703 
     89 H89        26.6361   27.0627    1.8076 H         1 UNK         0.3081 
     90 H90        24.1622   27.4868   -0.5826 H         1 UNK         0.0719 
     91 H91        26.6513   29.2763   -0.3626 H         1 UNK         0.0809 
     92 H92        25.8151   28.8543   -1.8561 H         1 UNK         0.0809 
     93 H93        25.0086   29.8373   -0.6456 H         1 UNK         0.0809 
     94 H94        27.0423   26.8403   -0.3541 H         1 UNK         0.2990 
     95 H95        27.1295   24.2228    0.9017 H         1 UNK         0.0690 
     96 H96        27.3149   22.1880   -0.5165 H         1 UNK         0.0788 
     97 H97        26.2367   22.9110   -1.7114 H         1 UNK         0.0788 
     98 H98        25.6450   22.5203   -0.1014 H         1 UNK         0.0788 
     99 H99        28.4469   24.1014   -1.5946 H         1 UNK         0.2993 
    100 H100       30.0881   25.5412   -2.3067 H         1 UNK         0.0949 
    101 H101       30.1999   27.9317   -1.5817 H         1 UNK         0.0767 
    102 H102       31.2044   27.4749   -0.2108 H         1 UNK         0.0767 
    103 H103       31.7977   27.2562   -1.8539 H         1 UNK         0.0767 
    104 H104       31.9344   25.1813   -0.0588 H         1 UNK         0.3013 
    105 H105       26.5475   29.7114    2.4826 H         1 UNK         0.3121 
    106 H106       27.1124   31.3174    4.8696 H         1 UNK         0.0774 
    107 H107       25.1099   32.2596    2.7377 H         1 UNK         0.0815 
    108 H108       25.7147   33.2245    4.0792 H         1 UNK         0.0815 
    109 H109       24.6984   31.8304    4.3974 H         1 UNK         0.0815 
    110 H110       28.5758   29.9555    2.6419 H         1 UNK         0.2987 
    111 H111       29.6542   32.1772    0.9915 H         1 UNK         0.0949 
    112 H112       29.9663   29.1297    0.8879 H         1 UNK         0.0806 
    113 H113       29.0349   30.1290   -0.2232 H         1 UNK         0.0806 
    114 H114       30.7865   30.2524   -0.1916 H         1 UNK         0.0806 
    115 H115       31.0069   33.3166    2.3292 H         1 UNK         0.3010 
    116 H116       32.4714   32.4271    4.4936 H         1 UNK         0.0829 
    117 H117       31.9970   34.8114    4.0262 H         1 UNK         0.0813 
    118 H118       33.7220   34.5852    4.2532 H         1 UNK         0.0813 
    119 H119       33.0763   34.7870    2.6303 H         1 UNK         0.0813 
    120 H120       33.4038   32.0828    1.1369 H         1 UNK         0.3038 
    121 H121       36.1841   31.5463    1.4577 H         1 UNK         0.0769 
    122 H122       34.1907   30.5469   -0.6529 H         1 UNK         0.0811 
    123 H123       35.9415   30.4687   -0.7880 H         1 UNK         0.0811 
    124 H124       35.1422   32.0304   -0.7470 H         1 UNK         0.0811 
    125 H125       33.3455   29.5777    2.1519 H         1 UNK         0.3204 
    126 H126       35.0550   27.1754    2.6994 H         1 UNK         0.0748 
    127 H127       32.0345   27.3725    2.1946 H         1 UNK         0.0771 
    128 H128       33.2366   26.7409    1.0674 H         1 UNK         0.0771 
    129 H129       32.9222   25.9040    2.5801 H         1 UNK         0.0771 
    130 H130       32.3736   29.2421    3.9434 H         1 UNK         0.2980 
    131 H131       32.4145   27.9018    6.5143 H         1 UNK         0.0545 
    132 H132       34.6609   31.1607    7.0731 H         1 UNK         0.3459 
    133 H133       34.3468   30.5878    5.4586 H         1 UNK         0.3459 
    134 H134       30.4262   29.2434    7.0309 H         1 UNK         0.0616 
    135 H135       30.7114   30.2802    5.6545 H         1 UNK         0.0616 
    136 H136       30.8953   26.3070    6.0409 H         1 UNK         0.0634 
    137 H137       29.4381   26.7667    6.8947 H         1 UNK         0.0634 
@<TRIPOS>BOND
     1    1    2 1    
     2    1   72 1    
     3    1   73 1    
     4    1   74 1    
     5    2    3 2    
     6    2    4 am   BACKBONE|DICT|INTERRES
     7    4    5 1    
     8    4   75 1    
     9    5    6 1    
    10    5   35 1    
    11    5   76 1    
    12    6    7 1    
    13    6   77 1    
    14    6   78 1    
    15    7    8 1    
    16    8    9 1    
    17    8   79 1    
    18    8   80 1    
    19    9   10 ar   
    20    9   14 ar   
    21   10   11 ar   
    22   10   81 1    
    23   11   12 ar   
    24   11   71 1    
    25   12   13 ar   
    26   12   82 1    
    27   13   14 ar   
    28   13   15 1    
    29   14   83 1    
    30   15   16 1    
    31   15   84 1    
    32   15   85 1    
    33   16   17 1    
    34   17   18 1    
    35   17   86 1    
    36   17   87 1    
    37   18   19 1    
    38   18   37 1    
    39   18   88 1    
    40   19   20 am   BACKBONE|DICT|INTERRES
    41   19   89 1    
    42   20   21 2    
    43   20   22 1    
    44   22   23 1    
    45   22   24 1    
    46   22   90 1    
    47   23   91 1    
    48   23   92 1    
    49   23   93 1    
    50   24   25 am   BACKBONE|DICT|INTERRES
    51   24   94 1    
    52   25   26 2    
    53   25   27 1    
    54   27   28 1    
    55   27   29 1    
    56   27   95 1    
    57   28   96 1    
    58   28   97 1    
    59   28   98 1    
    60   29   30 am   BACKBONE|DICT|INTERRES
    61   29   99 1    
    62   30   31 2    
    63   30   32 1    
    64   32   33 1    
    65   32   34 1    
    66   32  100 1    
    67   33  101 1    
    68   33  102 1    
    69   33  103 1    
    70   34   35 am   BACKBONE|DICT|INTERRES
    71   34  104 1    
    72   35   36 2    
    73   37   38 2    
    74   37   39 am   BACKBONE|DICT|INTERRES
    75   39   40 1    
    76   39  105 1    
    77   40   41 1    
    78   40   42 1    
    79   40  106 1    
    80   41  107 1    
    81   41  108 1    
    82   41  109 1    
    83   42   43 2    
    84   42   44 am   BACKBONE|DICT|INTERRES
    85   44   45 1    
    86   44  110 1    
    87   45   46 1    
    88   45   47 1    
    89   45  111 1    
    90   46  112 1    
    91   46  113 1    
    92   46  114 1    
    93   47   48 2    
    94   47   49 am   BACKBONE|DICT|INTERRES
    95   49   50 1    
    96   49  115 1    
    97   50   51 1    
    98   50   52 1    
    99   50  116 1    
   100   51  117 1    
   101   51  118 1    
   102   51  119 1    
   103   52   53 2    
   104   52   54 am   BACKBONE|DICT|INTERRES
   105   54   55 1    
   106   54  120 1    
   107   55   56 1    
   108   55   57 1    
   109   55  121 1    
   110   56  122 1    
   111   56  123 1    
   112   56  124 1    
   113   57   58 2    
   114   57   59 am   BACKBONE|DICT|INTERRES
   115   59   60 1    
   116   59  125 1    
   117   60   61 1    
   118   60   62 1    
   119   60  126 1    
   120   61  127 1    
   121   61  128 1    
   122   61  129 1    
   123   62   63 2    
   124   62   64 am   BACKBONE|DICT|INTERRES
   125   64   65 1    
   126   64  130 1    
   127   65   66 1    
   128   65   69 1    
   129   65  131 1    
   130   66   67 am   BACKBONE|DICT|INTERRES
   131   66   68 2    
   132   67  132 1    
   133   67  133 1    
   134   69   70 1    
   135   69  134 1    
   136   69  135 1    
   137   70   71 1    
   138   71  136 1    
   139   71  137 1    
@<TRIPOS>SUBSTRUCTURE
     1 UNK         1 GROUP             0       ****    0 ROOT    
