@<TRIPOS>MOLECULE
3R136
137   139    1
SMALL
USER_CHARGES


@<TRIPOS>ATOM
      1 CA         24.4480   26.7539    2.4798 C.3       0 UNK        -0.1979 
      2 C          25.2459   25.4600    2.4258 C.2       0 UNK         0.4864 
      3 O          24.6598   24.3803    2.3295 O.2       0 UNK        -0.5359 
      4 N          26.5807   25.5560    2.4690 N.am      1 UNK        -0.4318 
      5 CA         27.4986   24.4281    2.2976 C.3       1 UNK         0.0824 
      6 C6         28.9310   24.7910    2.7444 C.3       12 UNK        -0.0944 
      7 S7         29.9847   23.3233    3.0224 S.3       12 UNK        -0.2672 
      8 C8         31.1721   23.4121    1.6377 C.3       12 UNK         0.0333 
      9 C9         31.9216   24.7374    1.6107 C.ar      12 UNK        -0.0807 
     10 C10        32.7290   25.1147    2.6869 C.ar      12 UNK        -0.0894 
     11 C11        33.3396   26.3712    2.7084 C.ar      12 UNK        -0.0804 
     12 C12        33.1457   27.2529    1.6406 C.ar      12 UNK        -0.0824 
     13 C13        32.3585   26.8761    0.5479 C.ar      12 UNK        -0.0762 
     14 C14        31.7667   25.6095    0.5300 C.ar      12 UNK        -0.0782 
     15 C15        32.1276   27.8438   -0.6036 C.3       12 UNK         0.0230 
     16 S16        30.6389   28.8606   -0.3414 S.3       12 UNK        -0.2608 
     17 C17        29.3146   27.6212   -0.5484 C.3       12 UNK        -0.0989 
     18 CA         27.9075   28.2569   -0.6139 C.3       5 UNK         0.0716 
     19 N          26.9253   27.3147   -1.1464 N.am      5 UNK        -0.4135 
     20 C          25.8396   27.6828   -1.8374 C.2       4 UNK         0.5031 
     21 O          25.5111   28.8584   -2.0055 O.2       4 UNK        -0.5229 
     22 CA         24.9971   26.5814   -2.4932 C.3       4 UNK         0.0329 
     23 CB         25.6551   26.1027   -3.8005 C.3       4 UNK        -0.2001 
     24 N          24.7348   25.4336   -1.6200 N.am      4 UNK        -0.4303 
     25 C          23.6120   24.6990   -1.6879 C.2       3 UNK         0.5044 
     26 O          22.6695   24.9740   -2.4338 O.2       3 UNK        -0.5152 
     27 CA         23.5070   23.4518   -0.7835 C.3       3 UNK         0.0319 
     28 CB         22.5537   22.3776   -1.3507 C.3       3 UNK        -0.2001 
     29 N          24.8038   22.8639   -0.4333 N.am      3 UNK        -0.4354 
     30 C          25.7302   22.3507   -1.2624 C.2       2 UNK         0.4964 
     31 O          25.5647   22.2164   -2.4755 O.2       2 UNK        -0.5047 
     32 CA         27.0801   21.9398   -0.6270 C.3       2 UNK         0.0288 
     33 CB         28.2662   22.1061   -1.6021 C.3       2 UNK        -0.2113 
     34 N          27.3587   22.6226    0.6464 N.am      2 UNK        -0.4145 
     35 C          27.4392   23.9482    0.8349 C.2       1 UNK         0.5006 
     36 O          27.3883   24.7781   -0.0796 O.2       1 UNK        -0.5103 
     37 C          27.4431   28.7830    0.7546 C.2       5 UNK         0.5055 
     38 O          27.5649   28.0770    1.7583 O.2       5 UNK        -0.5220 
     39 N          26.9340   30.0207    0.7759 N.am      6 UNK        -0.4450 
     40 CA         26.5995   30.7463    2.0045 C.3       6 UNK         0.0367 
     41 CB         25.7250   31.9611    1.6568 C.3       6 UNK        -0.1929 
     42 C          27.8479   31.1876    2.7917 C.2       6 UNK         0.5070 
     43 O          27.7701   31.3494    4.0092 O.2       6 UNK        -0.5237 
     44 N          28.9853   31.3484    2.1001 N.am      7 UNK        -0.4739 
     45 CA         30.2810   31.7583    2.6504 C.3       7 UNK         0.0276 
     46 CB         31.1188   32.3967    1.5265 C.3       7 UNK        -0.1927 
     47 C          31.0328   30.6125    3.3599 C.2       7 UNK         0.5013 
     48 O          32.2523   30.5037    3.2285 O.2       7 UNK        -0.5193 
     49 N          30.3127   29.7968    4.1412 N.am      8 UNK        -0.4253 
     50 CA         30.8445   28.6612    4.9049 C.3       8 UNK         0.0242 
     51 CB         29.6743   27.8862    5.5297 C.3       8 UNK        -0.2000 
     52 C          31.8801   29.0531    5.9794 C.2       8 UNK         0.4948 
     53 O          32.6762   28.2096    6.3900 O.2       8 UNK        -0.5275 
     54 N          31.8786   30.3271    6.3950 N.am      9 UNK        -0.4246 
     55 CA         32.8720   30.9184    7.2918 C.3       9 UNK         0.0261 
     56 CB         32.3256   32.2496    7.8331 C.3       9 UNK        -0.1959 
     57 C          34.2524   31.1334    6.6399 C.2       9 UNK         0.5033 
     58 O          35.2319   31.2742    7.3742 O.2       9 UNK        -0.5390 
     59 N          34.3323   31.1556    5.2974 N.am      10 UNK        -0.4215 
     60 CA         35.5642   31.4272    4.5406 C.3       10 UNK         0.0240 
     61 CB         35.2313   31.5764    3.0472 C.3       10 UNK        -0.1982 
     62 C          36.6763   30.3802    4.7338 C.2       10 UNK         0.4970 
     63 O          37.8450   30.6982    4.5098 O.2       10 UNK        -0.4916 
     64 N          36.2996   29.1675    5.1538 N.am      11 UNK        -0.4279 
     65 CA         37.2173   28.0810    5.5202 C.3       11 UNK         0.1003 
     66 C          37.8884   28.2667    6.9142 C.2       11 UNK         0.5709 
     67 N          37.4930   29.2378    7.7316 N.am      11 UNK        -0.7358 
     68 O          38.7986   27.5162    7.2581 O.2       11 UNK        -0.4999 
     69 C69        36.5268   26.6964    5.4109 C.3       12 UNK        -0.0954 
     70 S70        35.9107   26.3310    3.7312 S.3       12 UNK        -0.2268 
     71 C71        34.1624   26.7896    3.9130 C.3       12 UNK         0.0203 
     72 H72        25.0662   27.5976    2.7859 H         1 UNK         0.0888 
     73 H73        23.6285   26.6618    3.1920 H         1 UNK         0.0888 
     74 H74        24.0276   26.9756    1.4993 H         1 UNK         0.0888 
     75 H75        27.0068   26.4812    2.4265 H         1 UNK         0.3017 
     76 H76        27.1366   23.6255    2.9445 H         1 UNK         0.0873 
     77 H77        28.8902   25.3205    3.6972 H         1 UNK         0.0745 
     78 H78        29.3932   25.4891    2.0486 H         1 UNK         0.0745 
     79 H79        31.8896   22.5959    1.7314 H         1 UNK         0.0705 
     80 H80        30.6356   23.2463    0.7020 H         1 UNK         0.0705 
     81 H81        32.8520   24.4420    3.5250 H         1 UNK         0.1334 
     82 H82        33.5938   28.2374    1.6679 H         1 UNK         0.1417 
     83 H83        31.1485   25.3197   -0.3087 H         1 UNK         0.1562 
     84 H84        32.0433   27.3024   -1.5472 H         1 UNK         0.0748 
     85 H85        32.9888   28.5053   -0.7096 H         1 UNK         0.0748 
     86 H86        29.3679   26.8880    0.2551 H         1 UNK         0.0940 
     87 H87        29.5143   27.0748   -1.4717 H         1 UNK         0.0940 
     88 H88        27.9743   29.1010   -1.3048 H         1 UNK         0.0703 
     89 H89        27.1152   26.3318   -0.9618 H         1 UNK         0.3081 
     90 H90        24.0468   27.0542   -2.7518 H         1 UNK         0.0719 
     91 H91        26.5886   25.5715   -3.6099 H         1 UNK         0.0809 
     92 H92        24.9971   25.4309   -4.3519 H         1 UNK         0.0809 
     93 H93        25.8826   26.9432   -4.4579 H         1 UNK         0.0809 
     94 H94        25.4730   25.1501   -0.9867 H         1 UNK         0.2990 
     95 H95        23.0756   23.8048    0.1541 H         1 UNK         0.0690 
     96 H96        22.4907   21.5136   -0.6892 H         1 UNK         0.0788 
     97 H97        22.8758   22.0271   -2.3317 H         1 UNK         0.0788 
     98 H98        21.5423   22.7702   -1.4630 H         1 UNK         0.0788 
     99 H99        25.0425   22.9445    0.5475 H         1 UNK         0.2993 
    100 H100       26.9891   20.8778   -0.3938 H         1 UNK         0.0949 
    101 H101       28.1365   21.4820   -2.4871 H         1 UNK         0.0767 
    102 H102       28.3694   23.1362   -1.9450 H         1 UNK         0.0767 
    103 H103       29.2067   21.8119   -1.1362 H         1 UNK         0.0767 
    104 H104       27.4095   22.0215    1.4582 H         1 UNK         0.3013 
    105 H105       26.8134   30.5149   -0.0978 H         1 UNK         0.3121 
    106 H106       26.0209   30.0824    2.6506 H         1 UNK         0.0774 
    107 H107       24.8052   31.6579    1.1562 H         1 UNK         0.0815 
    108 H108       26.2472   32.6638    1.0063 H         1 UNK         0.0815 
    109 H109       25.4374   32.5042    2.5583 H         1 UNK         0.0815 
    110 H110       28.9696   31.1412    1.1122 H         1 UNK         0.2987 
    111 H111       30.1043   32.5272    3.4057 H         1 UNK         0.0949 
    112 H112       31.3745   31.6713    0.7534 H         1 UNK         0.0806 
    113 H113       30.5873   33.2219    1.0524 H         1 UNK         0.0806 
    114 H114       32.0547   32.8003    1.9151 H         1 UNK         0.0806 
    115 H115       29.3203   29.9884    4.2233 H         1 UNK         0.3010 
    116 H116       31.3487   28.0023    4.1953 H         1 UNK         0.0829 
    117 H117       28.9668   27.5567    4.7683 H         1 UNK         0.0813 
    118 H118       30.0300   26.9951    6.0489 H         1 UNK         0.0813 
    119 H119       29.1294   28.4929    6.2540 H         1 UNK         0.0813 
    120 H120       31.1761   30.9472    6.0197 H         1 UNK         0.3038 
    121 H121       33.0146   30.2399    8.1358 H         1 UNK         0.0769 
    122 H122       32.1524   32.9713    7.0338 H         1 UNK         0.0811 
    123 H123       33.0277   32.7032    8.5343 H         1 UNK         0.0811 
    124 H124       31.3862   32.1061    8.3674 H         1 UNK         0.0811 
    125 H125       33.4965   30.9899    4.7437 H         1 UNK         0.3204 
    126 H126       35.9585   32.3815    4.8959 H         1 UNK         0.0748 
    127 H127       34.4789   32.3476    2.8811 H         1 UNK         0.0771 
    128 H128       36.1161   31.8595    2.4756 H         1 UNK         0.0771 
    129 H129       34.8561   30.6439    2.6235 H         1 UNK         0.0771 
    130 H130       35.3213   29.0028    5.3346 H         1 UNK         0.2980 
    131 H131       38.0370   28.0883    4.7992 H         1 UNK         0.0545 
    132 H132       37.9476   29.3388    8.6250 H         1 UNK         0.3459 
    133 H133       36.7493   29.8762    7.4732 H         1 UNK         0.3459 
    134 H134       37.2300   25.9022    5.6684 H         1 UNK         0.0616 
    135 H135       35.7095   26.6174    6.1303 H         1 UNK         0.0616 
    136 H136       34.0830   27.8675    4.0560 H         1 UNK         0.0634 
    137 H137       33.7560   26.3225    4.8112 H         1 UNK         0.0634 
@<TRIPOS>BOND
     1    1    2 1    
     2    1   72 1    
     3    1   73 1    
     4    1   74 1    
     5    2    3 2    
     6    2    4 am   BACKBONE|DICT|INTERRES
     7    4    5 1    
     8    4   75 1    
     9    5    6 1    
    10    5   35 1    
    11    5   76 1    
    12    6    7 1    
    13    6   77 1    
    14    6   78 1    
    15    7    8 1    
    16    8    9 1    
    17    8   79 1    
    18    8   80 1    
    19    9   10 ar   
    20    9   14 ar   
    21   10   11 ar   
    22   10   81 1    
    23   11   12 ar   
    24   11   71 1    
    25   12   13 ar   
    26   12   82 1    
    27   13   14 ar   
    28   13   15 1    
    29   14   83 1    
    30   15   16 1    
    31   15   84 1    
    32   15   85 1    
    33   16   17 1    
    34   17   18 1    
    35   17   86 1    
    36   17   87 1    
    37   18   19 1    
    38   18   37 1    
    39   18   88 1    
    40   19   20 am   BACKBONE|DICT|INTERRES
    41   19   89 1    
    42   20   21 2    
    43   20   22 1    
    44   22   23 1    
    45   22   24 1    
    46   22   90 1    
    47   23   91 1    
    48   23   92 1    
    49   23   93 1    
    50   24   25 am   BACKBONE|DICT|INTERRES
    51   24   94 1    
    52   25   26 2    
    53   25   27 1    
    54   27   28 1    
    55   27   29 1    
    56   27   95 1    
    57   28   96 1    
    58   28   97 1    
    59   28   98 1    
    60   29   30 am   BACKBONE|DICT|INTERRES
    61   29   99 1    
    62   30   31 2    
    63   30   32 1    
    64   32   33 1    
    65   32   34 1    
    66   32  100 1    
    67   33  101 1    
    68   33  102 1    
    69   33  103 1    
    70   34   35 am   BACKBONE|DICT|INTERRES
    71   34  104 1    
    72   35   36 2    
    73   37   38 2    
    74   37   39 am   BACKBONE|DICT|INTERRES
    75   39   40 1    
    76   39  105 1    
    77   40   41 1    
    78   40   42 1    
    79   40  106 1    
    80   41  107 1    
    81   41  108 1    
    82   41  109 1    
    83   42   43 2    
    84   42   44 am   BACKBONE|DICT|INTERRES
    85   44   45 1    
    86   44  110 1    
    87   45   46 1    
    88   45   47 1    
    89   45  111 1    
    90   46  112 1    
    91   46  113 1    
    92   46  114 1    
    93   47   48 2    
    94   47   49 am   BACKBONE|DICT|INTERRES
    95   49   50 1    
    96   49  115 1    
    97   50   51 1    
    98   50   52 1    
    99   50  116 1    
   100   51  117 1    
   101   51  118 1    
   102   51  119 1    
   103   52   53 2    
   104   52   54 am   BACKBONE|DICT|INTERRES
   105   54   55 1    
   106   54  120 1    
   107   55   56 1    
   108   55   57 1    
   109   55  121 1    
   110   56  122 1    
   111   56  123 1    
   112   56  124 1    
   113   57   58 2    
   114   57   59 am   BACKBONE|DICT|INTERRES
   115   59   60 1    
   116   59  125 1    
   117   60   61 1    
   118   60   62 1    
   119   60  126 1    
   120   61  127 1    
   121   61  128 1    
   122   61  129 1    
   123   62   63 2    
   124   62   64 am   BACKBONE|DICT|INTERRES
   125   64   65 1    
   126   64  130 1    
   127   65   66 1    
   128   65   69 1    
   129   65  131 1    
   130   66   67 am   BACKBONE|DICT|INTERRES
   131   66   68 2    
   132   67  132 1    
   133   67  133 1    
   134   69   70 1    
   135   69  134 1    
   136   69  135 1    
   137   70   71 1    
   138   71  136 1    
   139   71  137 1    
@<TRIPOS>SUBSTRUCTURE
     1 UNK         1 GROUP             0       ****    0 ROOT    
