@<TRIPOS>MOLECULE
3R136
137   139    1
SMALL
USER_CHARGES


@<TRIPOS>ATOM
      1 CA         26.8732   18.9900    2.4400 C.3       0 UNK        -0.1979 
      2 C          26.8748   19.9894    1.2928 C.2       0 UNK         0.4864 
      3 O          26.2443   19.7400    0.2647 O.2       0 UNK        -0.5359 
      4 N          27.5833   21.1138    1.4613 N.am      1 UNK        -0.4318 
      5 CA         27.6718   22.2157    0.4953 C.3       1 UNK         0.0824 
      6 C6         28.8288   23.1960    0.8225 C.3       12 UNK        -0.0944 
      7 S7         28.8957   23.7165    2.5773 S.3       12 UNK        -0.2672 
      8 C8         30.5913   23.2423    3.0471 C.3       12 UNK         0.0333 
      9 C9         31.5854   24.3520    2.7349 C.ar      12 UNK        -0.0807 
     10 C10        32.0392   25.1931    3.7562 C.ar      12 UNK        -0.0894 
     11 C11        32.9458   26.2203    3.4793 C.ar      12 UNK        -0.0804 
     12 C12        33.3840   26.4145    2.1653 C.ar      12 UNK        -0.0824 
     13 C13        32.9394   25.5807    1.1350 C.ar      12 UNK        -0.0762 
     14 C14        32.0526   24.5411    1.4301 C.ar      12 UNK        -0.0782 
     15 C15        33.4170   25.8063   -0.2954 C.3       12 UNK         0.0230 
     16 S16        32.0477   26.1663   -1.4468 S.3       12 UNK        -0.2608 
     17 C17        31.2218   27.5520   -0.5959 C.3       12 UNK        -0.0989 
     18 CA         30.2727   28.3717   -1.5206 C.3       5 UNK         0.0716 
     19 N          29.2744   27.5494   -2.2175 N.am      5 UNK        -0.4135 
     20 C          28.2853   26.8481   -1.6462 C.2       4 UNK         0.5031 
     21 O          28.1198   26.7434   -0.4284 O.2       4 UNK        -0.5229 
     22 CA         27.3423   26.1120   -2.6127 C.3       4 UNK         0.0329 
     23 CB         27.9313   24.7479   -3.0095 C.3       4 UNK        -0.2001 
     24 N          26.0117   25.9215   -2.0276 N.am      4 UNK        -0.4303 
     25 C          25.1064   26.9028   -1.8916 C.2       3 UNK         0.5044 
     26 O          25.2826   28.0490   -2.3082 O.2       3 UNK        -0.5152 
     27 CA         23.7646   26.5691   -1.2107 C.3       3 UNK         0.0319 
     28 CB         22.6523   26.4226   -2.2625 C.3       3 UNK        -0.2001 
     29 N          23.8011   25.3572   -0.3918 N.am      3 UNK        -0.4354 
     30 C          24.3361   25.2706    0.8332 C.2       2 UNK         0.4964 
     31 O          24.8287   26.2233    1.4375 O.2       2 UNK        -0.5047 
     32 CA         24.3201   23.8823    1.5038 C.3       2 UNK         0.0288 
     33 CB         23.2028   22.9491    0.9825 C.3       2 UNK        -0.2113 
     34 N          25.6236   23.2144    1.4190 N.am      2 UNK        -0.4145 
     35 C          26.3291   22.9506    0.3073 C.2       1 UNK         0.5006 
     36 O          25.9550   23.2370   -0.8319 O.2       1 UNK        -0.5103 
     37 C          29.5702   29.5538   -0.8094 C.2       5 UNK         0.5055 
     38 O          28.7326   30.2160   -1.4272 O.2       5 UNK        -0.5220 
     39 N          29.9021   29.7937    0.4624 N.am      6 UNK        -0.4450 
     40 CA         29.2066   30.6925    1.3711 C.3       6 UNK         0.0367 
     41 CB         29.7760   32.1189    1.2721 C.3       6 UNK        -0.1929 
     42 C          29.4035   30.0813    2.7582 C.2       6 UNK         0.5070 
     43 O          30.5530   29.9501    3.1877 O.2       6 UNK        -0.5237 
     44 N          28.2997   29.6637    3.3930 N.am      7 UNK        -0.4739 
     45 CA         28.2642   28.9182    4.6564 C.3       7 UNK         0.0276 
     46 CB         26.8015   28.6848    5.0693 C.3       7 UNK        -0.1927 
     47 C          29.0462   29.6249    5.7743 C.2       7 UNK         0.5013 
     48 O          28.6867   30.7431    6.1502 O.2       7 UNK        -0.5193 
     49 N          30.1366   28.9866    6.2219 N.am      8 UNK        -0.4253 
     50 CA         31.1717   29.4693    7.1485 C.3       8 UNK         0.0242 
     51 CB         30.5898   29.8033    8.5357 C.3       8 UNK        -0.2000 
     52 C          32.0163   30.6378    6.6043 C.2       8 UNK         0.4948 
     53 O          33.2352   30.6141    6.7653 O.2       8 UNK        -0.5275 
     54 N          31.3765   31.6202    5.9574 N.am      9 UNK        -0.4246 
     55 CA         31.9782   32.8338    5.3993 C.3       9 UNK         0.0261 
     56 CB         30.8763   33.7075    4.7812 C.3       9 UNK        -0.1959 
     57 C          33.1046   32.5789    4.3832 C.2       9 UNK         0.5033 
     58 O          34.1012   33.3029    4.4047 O.2       9 UNK        -0.5390 
     59 N          32.9636   31.5389    3.5474 N.am      10 UNK        -0.4215 
     60 CA         33.9958   31.1096    2.5947 C.3       10 UNK         0.0240 
     61 CB         33.3718   30.1604    1.5587 C.3       10 UNK        -0.1982 
     62 C          35.2285   30.4594    3.2556 C.2       10 UNK         0.4970 
     63 O          36.2522   30.3128    2.5869 O.2       10 UNK        -0.4916 
     64 N          35.1132   30.0814    4.5339 N.am      11 UNK        -0.4279 
     65 CA         36.1654   29.4622    5.3497 C.3       11 UNK         0.1003 
     66 C          36.8217   30.4640    6.3446 C.2       11 UNK         0.5709 
     67 N          36.4775   31.7477    6.3324 N.am      11 UNK        -0.7358 
     68 O          37.6858   30.0765    7.1281 O.2       11 UNK        -0.4999 
     69 C69        35.6300   28.1901    6.0637 C.3       12 UNK        -0.0954 
     70 S70        35.2314   26.8551    4.8870 S.3       12 UNK        -0.2268 
     71 C71        33.4543   27.1235    4.5931 C.3       12 UNK         0.0203 
     72 H72        27.2721   18.0330    2.1045 H         1 UNK         0.0888 
     73 H73        27.4764   19.3324    3.2807 H         1 UNK         0.0888 
     74 H74        25.8558   18.8295    2.7959 H         1 UNK         0.0888 
     75 H75        28.0820   21.2642    2.3272 H         1 UNK         0.3017 
     76 H76        27.9012   21.7659   -0.4737 H         1 UNK         0.0873 
     77 H77        28.7825   24.0903    0.1982 H         1 UNK         0.0745 
     78 H78        29.7671   22.7101    0.5563 H         1 UNK         0.0745 
     79 H79        30.6020   23.0216    4.1156 H         1 UNK         0.0705 
     80 H80        30.8846   22.3169    2.5494 H         1 UNK         0.0705 
     81 H81        31.6882   25.0450    4.7683 H         1 UNK         0.1334 
     82 H82        34.0853   27.2095    1.9518 H         1 UNK         0.1417 
     83 H83        31.7125   23.8958    0.6331 H         1 UNK         0.1562 
     84 H84        33.9449   24.9163   -0.6403 H         1 UNK         0.0748 
     85 H85        34.1361   26.6259   -0.3400 H         1 UNK         0.0748 
     86 H86        32.0029   28.1975   -0.1913 H         1 UNK         0.0940 
     87 H87        30.6782   27.1402    0.2572 H         1 UNK         0.0940 
     88 H88        30.8877   28.8225   -2.3009 H         1 UNK         0.0703 
     89 H89        29.3203   27.5818   -3.2255 H         1 UNK         0.3081 
     90 H90        27.2323   26.7129   -3.5182 H         1 UNK         0.0719 
     91 H91        28.1204   24.1197   -2.1398 H         1 UNK         0.0809 
     92 H92        27.2623   24.2039   -3.6765 H         1 UNK         0.0809 
     93 H93        28.8816   24.8691   -3.5309 H         1 UNK         0.0809 
     94 H94        25.8237   25.0121   -1.6150 H         1 UNK         0.2990 
     95 H95        23.5106   27.4126   -0.5651 H         1 UNK         0.0690 
     96 H96        21.6812   26.2605   -1.7941 H         1 UNK         0.0788 
     97 H97        22.8436   25.5887   -2.9392 H         1 UNK         0.0788 
     98 H98        22.5693   27.3239   -2.8717 H         1 UNK         0.0788 
     99 H99        23.4530   24.5095   -0.8168 H         1 UNK         0.2993 
    100 H100       24.1294   24.0608    2.5634 H         1 UNK         0.0949 
    101 H101       22.2269   23.4340    1.0369 H         1 UNK         0.0767 
    102 H102       23.3639   22.6392   -0.0505 H         1 UNK         0.0767 
    103 H103       23.1424   22.0434    1.5862 H         1 UNK         0.0767 
    104 H104       26.0492   22.9729    2.3030 H         1 UNK         0.3013 
    105 H105       30.5811   29.1998    0.9194 H         1 UNK         0.3121 
    106 H106       28.1422   30.7115    1.1257 H         1 UNK         0.0774 
    107 H107       29.2162   32.8014    1.9117 H         1 UNK         0.0815 
    108 H108       29.7066   32.5028    0.2544 H         1 UNK         0.0815 
    109 H109       30.8220   32.1665    1.5750 H         1 UNK         0.0815 
    110 H110       27.4052   29.8265    2.9537 H         1 UNK         0.2987 
    111 H111       28.7203   27.9437    4.4678 H         1 UNK         0.0949 
    112 H112       26.2703   29.6252    5.2226 H         1 UNK         0.0806 
    113 H113       26.2614   28.1118    4.3150 H         1 UNK         0.0806 
    114 H114       26.7445   28.1231    6.0027 H         1 UNK         0.0806 
    115 H115       30.3439   28.0934    5.7979 H         1 UNK         0.3010 
    116 H116       31.8583   28.6313    7.2802 H         1 UNK         0.0829 
    117 H117       29.9089   30.6542    8.5024 H         1 UNK         0.0813 
    118 H118       30.0466   28.9552    8.9523 H         1 UNK         0.0813 
    119 H119       31.3853   30.0554    9.2382 H         1 UNK         0.0813 
    120 H120       30.3656   31.5315    5.8869 H         1 UNK         0.3038 
    121 H121       32.4184   33.3833    6.2338 H         1 UNK         0.0769 
    122 H122       31.2929   34.6141    4.3400 H         1 UNK         0.0811 
    123 H123       30.3384   33.1765    3.9967 H         1 UNK         0.0811 
    124 H124       30.1495   34.0176    5.5322 H         1 UNK         0.0811 
    125 H125       32.1079   30.9865    3.5787 H         1 UNK         0.3204 
    126 H126       34.3543   31.9940    2.0636 H         1 UNK         0.0748 
    127 H127       32.8990   29.3025    2.0357 H         1 UNK         0.0771 
    128 H128       32.6186   30.6724    0.9615 H         1 UNK         0.0771 
    129 H129       34.1233   29.7793    0.8656 H         1 UNK         0.0771 
    130 H130       34.2631   30.2974    5.0424 H         1 UNK         0.2980 
    131 H131       36.9829   29.1467    4.6993 H         1 UNK         0.0545 
    132 H132       36.9197   32.3816    6.9786 H         1 UNK         0.3459 
    133 H133       35.7723   32.0868    5.6947 H         1 UNK         0.3459 
    134 H134       36.3802   27.7884    6.7469 H         1 UNK         0.0616 
    135 H135       34.7561   28.4176    6.6758 H         1 UNK         0.0616 
    136 H136       32.9107   26.9435    5.5216 H         1 UNK         0.0634 
    137 H137       33.2650   28.1610    4.3196 H         1 UNK         0.0634 
@<TRIPOS>BOND
     1    1    2 1    
     2    1   72 1    
     3    1   73 1    
     4    1   74 1    
     5    2    3 2    
     6    2    4 am   BACKBONE|DICT|INTERRES
     7    4    5 1    
     8    4   75 1    
     9    5    6 1    
    10    5   35 1    
    11    5   76 1    
    12    6    7 1    
    13    6   77 1    
    14    6   78 1    
    15    7    8 1    
    16    8    9 1    
    17    8   79 1    
    18    8   80 1    
    19    9   10 ar   
    20    9   14 ar   
    21   10   11 ar   
    22   10   81 1    
    23   11   12 ar   
    24   11   71 1    
    25   12   13 ar   
    26   12   82 1    
    27   13   14 ar   
    28   13   15 1    
    29   14   83 1    
    30   15   16 1    
    31   15   84 1    
    32   15   85 1    
    33   16   17 1    
    34   17   18 1    
    35   17   86 1    
    36   17   87 1    
    37   18   19 1    
    38   18   37 1    
    39   18   88 1    
    40   19   20 am   BACKBONE|DICT|INTERRES
    41   19   89 1    
    42   20   21 2    
    43   20   22 1    
    44   22   23 1    
    45   22   24 1    
    46   22   90 1    
    47   23   91 1    
    48   23   92 1    
    49   23   93 1    
    50   24   25 am   BACKBONE|DICT|INTERRES
    51   24   94 1    
    52   25   26 2    
    53   25   27 1    
    54   27   28 1    
    55   27   29 1    
    56   27   95 1    
    57   28   96 1    
    58   28   97 1    
    59   28   98 1    
    60   29   30 am   BACKBONE|DICT|INTERRES
    61   29   99 1    
    62   30   31 2    
    63   30   32 1    
    64   32   33 1    
    65   32   34 1    
    66   32  100 1    
    67   33  101 1    
    68   33  102 1    
    69   33  103 1    
    70   34   35 am   BACKBONE|DICT|INTERRES
    71   34  104 1    
    72   35   36 2    
    73   37   38 2    
    74   37   39 am   BACKBONE|DICT|INTERRES
    75   39   40 1    
    76   39  105 1    
    77   40   41 1    
    78   40   42 1    
    79   40  106 1    
    80   41  107 1    
    81   41  108 1    
    82   41  109 1    
    83   42   43 2    
    84   42   44 am   BACKBONE|DICT|INTERRES
    85   44   45 1    
    86   44  110 1    
    87   45   46 1    
    88   45   47 1    
    89   45  111 1    
    90   46  112 1    
    91   46  113 1    
    92   46  114 1    
    93   47   48 2    
    94   47   49 am   BACKBONE|DICT|INTERRES
    95   49   50 1    
    96   49  115 1    
    97   50   51 1    
    98   50   52 1    
    99   50  116 1    
   100   51  117 1    
   101   51  118 1    
   102   51  119 1    
   103   52   53 2    
   104   52   54 am   BACKBONE|DICT|INTERRES
   105   54   55 1    
   106   54  120 1    
   107   55   56 1    
   108   55   57 1    
   109   55  121 1    
   110   56  122 1    
   111   56  123 1    
   112   56  124 1    
   113   57   58 2    
   114   57   59 am   BACKBONE|DICT|INTERRES
   115   59   60 1    
   116   59  125 1    
   117   60   61 1    
   118   60   62 1    
   119   60  126 1    
   120   61  127 1    
   121   61  128 1    
   122   61  129 1    
   123   62   63 2    
   124   62   64 am   BACKBONE|DICT|INTERRES
   125   64   65 1    
   126   64  130 1    
   127   65   66 1    
   128   65   69 1    
   129   65  131 1    
   130   66   67 am   BACKBONE|DICT|INTERRES
   131   66   68 2    
   132   67  132 1    
   133   67  133 1    
   134   69   70 1    
   135   69  134 1    
   136   69  135 1    
   137   70   71 1    
   138   71  136 1    
   139   71  137 1    
@<TRIPOS>SUBSTRUCTURE
     1 UNK         1 GROUP             0       ****    0 ROOT    
