@<TRIPOS>MOLECULE
3R136
137   139    1
SMALL
USER_CHARGES


@<TRIPOS>ATOM
      1 CA         28.0481   18.1860    1.1548 C.3       0 UNK        -0.1979 
      2 C          28.4600   19.4876    0.4830 C.2       0 UNK         0.4864 
      3 O          28.3013   19.6254   -0.7306 O.2       0 UNK        -0.5359 
      4 N          28.9887   20.4405    1.2629 N.am      1 UNK        -0.4318 
      5 CA         29.4556   21.7528    0.7922 C.3       1 UNK         0.0824 
      6 C6         30.3474   22.4596    1.8422 C.3       12 UNK        -0.0944 
      7 S7         31.7813   21.4504    2.3642 S.3       12 UNK        -0.2672 
      8 C8         33.0626   21.8915    1.1423 C.3       12 UNK         0.0333 
      9 C9         33.4095   23.3717    1.1888 C.ar      12 UNK        -0.0807 
     10 C10        34.1304   23.8961    2.2655 C.ar      12 UNK        -0.0894 
     11 C11        34.3738   25.2707    2.3549 C.ar      12 UNK        -0.0804 
     12 C12        33.9080   26.1168    1.3441 C.ar      12 UNK        -0.0824 
     13 C13        33.1973   25.6012    0.2556 C.ar      12 UNK        -0.0762 
     14 C14        32.9702   24.2248    0.1735 C.ar      12 UNK        -0.0782 
     15 C15        32.6148   26.5406   -0.7944 C.3       12 UNK         0.0230 
     16 S16        30.8066   26.3490   -0.9739 S.3       12 UNK        -0.2608 
     17 C17        30.2259   26.5363    0.7481 C.3       12 UNK        -0.0989 
     18 CA         29.4005   27.8270    0.9488 C.3       5 UNK         0.0716 
     19 N          28.0974   27.7186    0.2924 N.am      5 UNK        -0.4135 
     20 C          27.5619   28.6381   -0.5212 C.2       4 UNK         0.5031 
     21 O          28.1246   29.6835   -0.8462 O.2       4 UNK        -0.5229 
     22 CA         26.1454   28.3594   -1.0641 C.3       4 UNK         0.0329 
     23 CB         26.2236   27.7809   -2.4864 C.3       4 UNK        -0.2001 
     24 N          25.3463   27.4593   -0.2267 N.am      4 UNK        -0.4303 
     25 C          25.0164   27.6818    1.0534 C.2       3 UNK         0.5044 
     26 O          25.3141   28.7066    1.6660 O.2       3 UNK        -0.5152 
     27 CA         24.2975   26.5446    1.7993 C.3       3 UNK         0.0319 
     28 CB         22.7774   26.7680    1.7774 C.3       3 UNK        -0.2001 
     29 N          24.5997   25.1989    1.2948 N.am      3 UNK        -0.4354 
     30 C          25.8161   24.6350    1.2337 C.2       2 UNK         0.4964 
     31 O          26.8551   25.2175    1.5556 O.2       2 UNK        -0.5047 
     32 CA         25.8382   23.1839    0.7168 C.3       2 UNK         0.0288 
     33 CB         25.4135   23.1049   -0.7663 C.3       2 UNK        -0.2113 
     34 N          27.1098   22.4830    0.9448 N.am      2 UNK        -0.4145 
     35 C          28.2989   22.6790    0.3498 C.2       1 UNK         0.5006 
     36 O          28.5095   23.5194   -0.5252 O.2       1 UNK        -0.5103 
     37 C          29.2641   28.1472    2.4519 C.2       5 UNK         0.5055 
     38 O          30.2941   28.2944    3.1086 O.2       5 UNK        -0.5220 
     39 N          28.0381   28.2426    2.9918 N.am      6 UNK        -0.4450 
     40 CA         27.8025   28.5615    4.4053 C.3       6 UNK         0.0367 
     41 CB         26.4047   28.0780    4.8219 C.3       6 UNK        -0.1929 
     42 C          27.9730   30.0600    4.7107 C.2       6 UNK         0.5070 
     43 O          28.2560   30.4140    5.8561 O.2       6 UNK        -0.5237 
     44 N          27.8113   30.9048    3.6872 N.am      7 UNK        -0.4739 
     45 CA         28.0488   32.3447    3.7181 C.3       7 UNK         0.0276 
     46 CB         26.7261   33.0682    3.4142 C.3       7 UNK        -0.1927 
     47 C          29.1106   32.6952    2.6671 C.2       7 UNK         0.5013 
     48 O          29.3527   31.9017    1.7531 O.2       7 UNK        -0.5193 
     49 N          29.7161   33.8825    2.8134 N.am      8 UNK        -0.4253 
     50 CA         30.7624   34.4945    1.9761 C.3       8 UNK         0.0242 
     51 CB         30.2827   34.7072    0.5262 C.3       8 UNK        -0.2000 
     52 C          32.1207   33.7684    2.0147 C.2       8 UNK         0.4948 
     53 O          33.1468   34.4249    2.1999 O.2       8 UNK        -0.5275 
     54 N          32.1094   32.4409    1.8549 N.am      9 UNK        -0.4246 
     55 CA         33.2602   31.5581    2.0363 C.3       9 UNK         0.0261 
     56 CB         32.9611   30.2106    1.3582 C.3       9 UNK        -0.1959 
     57 C          33.5744   31.3575    3.5293 C.2       9 UNK         0.5033 
     58 O          32.7087   31.5760    4.3814 O.2       9 UNK        -0.5390 
     59 N          34.8006   30.8988    3.8179 N.am      10 UNK        -0.4215 
     60 CA         35.3226   30.6572    5.1713 C.3       10 UNK         0.0240 
     61 CB         36.7956   30.2268    5.0727 C.3       10 UNK        -0.1982 
     62 C          34.5238   29.6351    6.0043 C.2       10 UNK         0.4970 
     63 O          34.5559   29.7077    7.2334 O.2       10 UNK        -0.4916 
     64 N          33.8229   28.7193    5.3266 N.am      11 UNK        -0.4279 
     65 CA         32.8905   27.7550    5.9253 C.3       11 UNK         0.1003 
     66 C          31.4898   28.3483    6.2674 C.2       11 UNK         0.5709 
     67 N          31.1931   29.6090    5.9718 N.am      11 UNK        -0.7358 
     68 O          30.6589   27.6512    6.8452 O.2       11 UNK        -0.4999 
     69 C69        32.7915   26.4705    5.0591 C.3       12 UNK        -0.0954 
     70 S70        34.3251   25.4823    5.1378 S.3       12 UNK        -0.2268 
     71 C71        35.1329   25.8447    3.5445 C.3       12 UNK         0.0203 
     72 H72        28.2490   18.1982    2.2260 H         1 UNK         0.0888 
     73 H73        26.9823   18.0106    1.0115 H         1 UNK         0.0888 
     74 H74        28.5933   17.3498    0.7178 H         1 UNK         0.0888 
     75 H75        29.1288   20.2568    2.2466 H         1 UNK         0.3017 
     76 H76        30.0671   21.5793   -0.0962 H         1 UNK         0.0873 
     77 H77        30.6945   23.4227    1.4681 H         1 UNK         0.0745 
     78 H78        29.7650   22.6888    2.7367 H         1 UNK         0.0745 
     79 H79        33.9598   21.3043    1.3430 H         1 UNK         0.0705 
     80 H80        32.7231   21.6010    0.1469 H         1 UNK         0.0705 
     81 H81        34.4704   23.2381    3.0538 H         1 UNK         0.1334 
     82 H82        34.0805   27.1809    1.4159 H         1 UNK         0.1417 
     83 H83        32.4003   23.8281   -0.6560 H         1 UNK         0.1562 
     84 H84        33.0913   26.3435   -1.7555 H         1 UNK         0.0748 
     85 H85        32.8306   27.5816   -0.5485 H         1 UNK         0.0748 
     86 H86        29.6326   25.6581    1.0096 H         1 UNK         0.0940 
     87 H87        31.0818   26.5181    1.4228 H         1 UNK         0.0940 
     88 H88        29.9663   28.6589    0.5234 H         1 UNK         0.0703 
     89 H89        27.5732   26.8753    0.5019 H         1 UNK         0.3081 
     90 H90        25.6217   29.3165   -1.1092 H         1 UNK         0.0719 
     91 H91        26.7184   26.8086   -2.4994 H         1 UNK         0.0809 
     92 H92        25.2321   27.6615   -2.9236 H         1 UNK         0.0809 
     93 H93        26.7884   28.4418   -3.1457 H         1 UNK         0.0809 
     94 H94        25.0634   26.5840   -0.6424 H         1 UNK         0.2990 
     95 H95        24.6297   26.5805    2.8381 H         1 UNK         0.0690 
     96 H96        22.2582   26.0320    2.3916 H         1 UNK         0.0788 
     97 H97        22.3741   26.7077    0.7656 H         1 UNK         0.0788 
     98 H98        22.5219   27.7527    2.1719 H         1 UNK         0.0788 
     99 H99        23.8037   24.6479    1.0056 H         1 UNK         0.2993 
    100 H100       25.0997   22.6348    1.3035 H         1 UNK         0.0949 
    101 H101       25.4680   22.0817   -1.1389 H         1 UNK         0.0767 
    102 H102       24.3852   23.4403   -0.9045 H         1 UNK         0.0767 
    103 H103       26.0426   23.7259   -1.4051 H         1 UNK         0.0767 
    104 H104       27.0795   21.7730    1.6625 H         1 UNK         0.3013 
    105 H105       27.2207   28.1672    2.3984 H         1 UNK         0.3121 
    106 H106       28.5339   28.0193    5.0088 H         1 UNK         0.0774 
    107 H107       25.6151   28.6130    4.2940 H         1 UNK         0.0815 
    108 H108       26.2439   28.2372    5.8890 H         1 UNK         0.0815 
    109 H109       26.2812   27.0118    4.6325 H         1 UNK         0.0815 
    110 H110       27.6676   30.5149    2.7655 H         1 UNK         0.2987 
    111 H111       28.4171   32.6545    4.6988 H         1 UNK         0.0949 
    112 H112       26.3411   32.8076    2.4272 H         1 UNK         0.0806 
    113 H113       25.9606   32.8151    4.1481 H         1 UNK         0.0806 
    114 H114       26.8525   34.1513    3.4403 H         1 UNK         0.0806 
    115 H115       29.4524   34.4365    3.6170 H         1 UNK         0.3010 
    116 H116       30.9321   35.4836    2.4051 H         1 UNK         0.0829 
    117 H117       29.3608   35.2878    0.4951 H         1 UNK         0.0813 
    118 H118       31.0291   35.2527   -0.0526 H         1 UNK         0.0813 
    119 H119       30.1019   33.7638    0.0101 H         1 UNK         0.0813 
    120 H120       31.1983   32.0002    1.7488 H         1 UNK         0.3038 
    121 H121       34.1274   32.0134    1.5532 H         1 UNK         0.0769 
    122 H122       32.1279   29.6962    1.8372 H         1 UNK         0.0811 
    123 H123       33.8257   29.5487    1.4016 H         1 UNK         0.0811 
    124 H124       32.7098   30.3423    0.3055 H         1 UNK         0.0811 
    125 H125       35.4460   30.7414    3.0567 H         1 UNK         0.3204 
    126 H126       35.2793   31.6074    5.7078 H         1 UNK         0.0748 
    127 H127       37.2239   30.0686    6.0637 H         1 UNK         0.0771 
    128 H128       36.9076   29.2944    4.5176 H         1 UNK         0.0771 
    129 H129       37.4012   30.9879    4.5801 H         1 UNK         0.0771 
    130 H130       33.8328   28.7551    4.3200 H         1 UNK         0.2980 
    131 H131       33.3003   27.4574    6.8925 H         1 UNK         0.0545 
    132 H132       30.2639   29.9502    6.1798 H         1 UNK         0.3459 
    133 H133       31.8433   30.2042    5.4690 H         1 UNK         0.3459 
    134 H134       31.9878   25.8228    5.4136 H         1 UNK         0.0616 
    135 H135       32.5439   26.7148    4.0247 H         1 UNK         0.0616 
    136 H136       35.2619   26.9236    3.4483 H         1 UNK         0.0634 
    137 H137       36.1358   25.4165    3.5582 H         1 UNK         0.0634 
@<TRIPOS>BOND
     1    1    2 1    
     2    1   72 1    
     3    1   73 1    
     4    1   74 1    
     5    2    3 2    
     6    2    4 am   BACKBONE|DICT|INTERRES
     7    4    5 1    
     8    4   75 1    
     9    5    6 1    
    10    5   35 1    
    11    5   76 1    
    12    6    7 1    
    13    6   77 1    
    14    6   78 1    
    15    7    8 1    
    16    8    9 1    
    17    8   79 1    
    18    8   80 1    
    19    9   10 ar   
    20    9   14 ar   
    21   10   11 ar   
    22   10   81 1    
    23   11   12 ar   
    24   11   71 1    
    25   12   13 ar   
    26   12   82 1    
    27   13   14 ar   
    28   13   15 1    
    29   14   83 1    
    30   15   16 1    
    31   15   84 1    
    32   15   85 1    
    33   16   17 1    
    34   17   18 1    
    35   17   86 1    
    36   17   87 1    
    37   18   19 1    
    38   18   37 1    
    39   18   88 1    
    40   19   20 am   BACKBONE|DICT|INTERRES
    41   19   89 1    
    42   20   21 2    
    43   20   22 1    
    44   22   23 1    
    45   22   24 1    
    46   22   90 1    
    47   23   91 1    
    48   23   92 1    
    49   23   93 1    
    50   24   25 am   BACKBONE|DICT|INTERRES
    51   24   94 1    
    52   25   26 2    
    53   25   27 1    
    54   27   28 1    
    55   27   29 1    
    56   27   95 1    
    57   28   96 1    
    58   28   97 1    
    59   28   98 1    
    60   29   30 am   BACKBONE|DICT|INTERRES
    61   29   99 1    
    62   30   31 2    
    63   30   32 1    
    64   32   33 1    
    65   32   34 1    
    66   32  100 1    
    67   33  101 1    
    68   33  102 1    
    69   33  103 1    
    70   34   35 am   BACKBONE|DICT|INTERRES
    71   34  104 1    
    72   35   36 2    
    73   37   38 2    
    74   37   39 am   BACKBONE|DICT|INTERRES
    75   39   40 1    
    76   39  105 1    
    77   40   41 1    
    78   40   42 1    
    79   40  106 1    
    80   41  107 1    
    81   41  108 1    
    82   41  109 1    
    83   42   43 2    
    84   42   44 am   BACKBONE|DICT|INTERRES
    85   44   45 1    
    86   44  110 1    
    87   45   46 1    
    88   45   47 1    
    89   45  111 1    
    90   46  112 1    
    91   46  113 1    
    92   46  114 1    
    93   47   48 2    
    94   47   49 am   BACKBONE|DICT|INTERRES
    95   49   50 1    
    96   49  115 1    
    97   50   51 1    
    98   50   52 1    
    99   50  116 1    
   100   51  117 1    
   101   51  118 1    
   102   51  119 1    
   103   52   53 2    
   104   52   54 am   BACKBONE|DICT|INTERRES
   105   54   55 1    
   106   54  120 1    
   107   55   56 1    
   108   55   57 1    
   109   55  121 1    
   110   56  122 1    
   111   56  123 1    
   112   56  124 1    
   113   57   58 2    
   114   57   59 am   BACKBONE|DICT|INTERRES
   115   59   60 1    
   116   59  125 1    
   117   60   61 1    
   118   60   62 1    
   119   60  126 1    
   120   61  127 1    
   121   61  128 1    
   122   61  129 1    
   123   62   63 2    
   124   62   64 am   BACKBONE|DICT|INTERRES
   125   64   65 1    
   126   64  130 1    
   127   65   66 1    
   128   65   69 1    
   129   65  131 1    
   130   66   67 am   BACKBONE|DICT|INTERRES
   131   66   68 2    
   132   67  132 1    
   133   67  133 1    
   134   69   70 1    
   135   69  134 1    
   136   69  135 1    
   137   70   71 1    
   138   71  136 1    
   139   71  137 1    
@<TRIPOS>SUBSTRUCTURE
     1 UNK         1 GROUP             0       ****    0 ROOT    
