@<TRIPOS>MOLECULE
3R136
137   139    1
SMALL
USER_CHARGES


@<TRIPOS>ATOM
      1 CA         27.5172   21.0098    3.1535 C.3       0 UNK        -0.1979 
      2 C          27.5548   20.5219    1.7132 C.2       0 UNK         0.4864 
      3 O          26.6259   19.8433    1.2731 O.2       0 UNK        -0.5359 
      4 N          28.6229   20.8580    0.9771 N.am      1 UNK        -0.4318 
      5 CA         28.8145   20.5088   -0.4367 C.3       1 UNK         0.0824 
      6 C6         30.2948   20.6781   -0.8749 C.3       12 UNK        -0.0944 
      7 S7         30.9391   22.3804   -0.6754 S.3       12 UNK        -0.2672 
      8 C8         32.0664   22.2155    0.7437 C.3       12 UNK         0.0333 
      9 C9         31.9982   23.4570    1.6180 C.ar      12 UNK        -0.0807 
     10 C10        32.7513   24.5905    1.3026 C.ar      12 UNK        -0.0894 
     11 C11        32.6670   25.7423    2.0920 C.ar      12 UNK        -0.0804 
     12 C12        31.8118   25.7597    3.2003 C.ar      12 UNK        -0.0824 
     13 C13        31.0570   24.6271    3.5266 C.ar      12 UNK        -0.0762 
     14 C14        31.1654   23.4783    2.7383 C.ar      12 UNK        -0.0782 
     15 C15        30.1199   24.6196    4.7258 C.3       12 UNK         0.0230 
     16 S16        28.3818   24.5047    4.1893 S.3       12 UNK        -0.2608 
     17 C17        27.6939   26.1205    4.6787 C.3       12 UNK        -0.0989 
     18 CA         28.3589   27.3459    4.0035 C.3       5 UNK         0.0716 
     19 N          28.4642   27.2017    2.5473 N.am      5 UNK        -0.4135 
     20 C          29.1482   28.0265    1.7429 C.2       4 UNK         0.5031 
     21 O          29.7976   28.9899    2.1499 O.2       4 UNK        -0.5229 
     22 CA         29.0392   27.7925    0.2260 C.3       4 UNK         0.0329 
     23 CB         30.1851   26.8917   -0.2563 C.3       4 UNK        -0.2001 
     24 N          27.7638   27.2241   -0.2241 N.am      4 UNK        -0.4303 
     25 C          26.5286   27.6582    0.0702 C.2       3 UNK         0.5044 
     26 O          26.3091   28.6354    0.7875 O.2       3 UNK        -0.5152 
     27 CA         25.3314   26.8748   -0.5095 C.3       3 UNK         0.0319 
     28 CB         24.4912   27.7835   -1.4223 C.3       3 UNK        -0.2001 
     29 N          25.6887   25.6559   -1.2489 N.am      3 UNK        -0.4354 
     30 C          26.2404   24.5550   -0.7194 C.2       2 UNK         0.4964 
     31 O          26.4900   24.4311    0.4832 O.2       2 UNK        -0.5047 
     32 CA         26.6321   23.4395   -1.7022 C.3       2 UNK         0.0288 
     33 CB         27.3988   23.9910   -2.9272 C.3       2 UNK        -0.2113 
     34 N          27.4629   22.4855   -0.9767 N.am      2 UNK        -0.4145 
     35 C          27.8555   21.2714   -1.3794 C.2       1 UNK         0.5006 
     36 O          27.5055   20.7518   -2.4410 O.2       1 UNK        -0.5103 
     37 C          27.6387   28.6400    4.4477 C.2       5 UNK         0.5055 
     38 O          27.8325   29.0598    5.5887 O.2       5 UNK        -0.5220 
     39 N          26.8304   29.2418    3.5644 N.am      6 UNK        -0.4450 
     40 CA         26.1792   30.5340    3.7729 C.3       6 UNK         0.0367 
     41 CB         24.6702   30.3901    3.5144 C.3       6 UNK        -0.1929 
     42 C          26.7805   31.6055    2.8519 C.2       6 UNK         0.5070 
     43 O          26.9824   32.7345    3.2983 O.2       6 UNK        -0.5237 
     44 N          27.0410   31.2477    1.5851 N.am      7 UNK        -0.4739 
     45 CA         27.5152   32.1646    0.5447 C.3       7 UNK         0.0276 
     46 CB         27.3447   31.5086   -0.8349 C.3       7 UNK        -0.1927 
     47 C          28.9612   32.6479    0.7476 C.2       7 UNK         0.5013 
     48 O          29.2466   33.8072    0.4440 O.2       7 UNK        -0.5193 
     49 N          29.8362   31.7693    1.2541 N.am      8 UNK        -0.4253 
     50 CA         31.2162   32.0921    1.6232 C.3       8 UNK         0.0242 
     51 CB         32.1896   31.0987    0.9632 C.3       8 UNK        -0.2000 
     52 C          31.3632   32.0790    3.1487 C.2       8 UNK         0.4948 
     53 O          31.8879   33.0410    3.7118 O.2       8 UNK        -0.5275 
     54 N          30.8826   30.9999    3.7859 N.am      9 UNK        -0.4246 
     55 CA         30.8448   30.7181    5.2271 C.3       9 UNK         0.0261 
     56 CB         29.9645   31.7357    5.9788 C.3       9 UNK        -0.1959 
     57 C          32.2278   30.5698    5.8818 C.2       9 UNK         0.5033 
     58 O          32.5220   29.5132    6.4435 O.2       9 UNK        -0.5390 
     59 N          33.0678   31.6050    5.7759 N.am      10 UNK        -0.4215 
     60 CA         34.4501   31.6466    6.2562 C.3       10 UNK         0.0240 
     61 CB         34.8550   33.1160    6.4774 C.3       10 UNK        -0.1982 
     62 C          35.3892   30.9078    5.2840 C.2       10 UNK         0.4970 
     63 O          36.2776   31.5222    4.6902 O.2       10 UNK        -0.4916 
     64 N          35.1367   29.6065    5.1080 N.am      11 UNK        -0.4279 
     65 CA         35.8739   28.7088    4.2126 C.3       11 UNK         0.1003 
     66 C          37.3459   28.4712    4.6538 C.2       11 UNK         0.5709 
     67 N          38.2354   28.1819    3.7141 N.am      11 UNK        -0.7358 
     68 O          37.6801   28.5110    5.8371 O.2       11 UNK        -0.4999 
     69 C69        35.1029   27.3742    4.0110 C.3       12 UNK        -0.0954 
     70 S70        35.2161   26.7932    2.2871 S.3       12 UNK        -0.2268 
     71 C71        33.4943   26.9651    1.7241 C.3       12 UNK         0.0203 
     72 H72        26.7654   21.7910    3.2643 H         1 UNK         0.0888 
     73 H73        27.2595   20.1899    3.8233 H         1 UNK         0.0888 
     74 H74        28.4770   21.4141    3.4727 H         1 UNK         0.0888 
     75 H75        29.3512   21.4271    1.3812 H         1 UNK         0.3017 
     76 H76        28.5662   19.4503   -0.5429 H         1 UNK         0.0873 
     77 H77        30.9239   19.9800   -0.3211 H         1 UNK         0.0745 
     78 H78        30.4114   20.3939   -1.9226 H         1 UNK         0.0745 
     79 H79        31.8143   21.3334    1.3341 H         1 UNK         0.0705 
     80 H80        33.0838   22.0618    0.3809 H         1 UNK         0.0705 
     81 H81        33.3999   24.5789    0.4371 H         1 UNK         0.1334 
     82 H82        31.7348   26.6525    3.8054 H         1 UNK         0.1417 
     83 H83        30.5838   22.6047    2.9947 H         1 UNK         0.1562 
     84 H84        30.2758   25.4951    5.3570 H         1 UNK         0.0748 
     85 H85        30.3497   23.7552    5.3505 H         1 UNK         0.0748 
     86 H86        27.7642   26.2012    5.7655 H         1 UNK         0.0940 
     87 H87        26.6263   26.0960    4.4498 H         1 UNK         0.0940 
     88 H88        29.3792   27.4287    4.3811 H         1 UNK         0.0703 
     89 H89        27.9711   26.4202    2.1382 H         1 UNK         0.3081 
     90 H90        29.1488   28.7634   -0.2577 H         1 UNK         0.0719 
     91 H91        30.1410   25.9001    0.1977 H         1 UNK         0.0809 
     92 H92        30.1692   26.7670   -1.3391 H         1 UNK         0.0809 
     93 H93        31.1507   27.3269    0.0003 H         1 UNK         0.0809 
     94 H94        27.8292   26.4090   -0.8145 H         1 UNK         0.2990 
     95 H95        24.7115   26.5787    0.3392 H         1 UNK         0.0690 
     96 H96        23.5935   27.2741   -1.7732 H         1 UNK         0.0788 
     97 H97        25.0564   28.1117   -2.2956 H         1 UNK         0.0788 
     98 H98        24.1638   28.6791   -0.8919 H         1 UNK         0.0788 
     99 H99        25.5272   25.6780   -2.2459 H         1 UNK         0.2993 
    100 H100       25.7196   22.9365   -2.0280 H         1 UNK         0.0949 
    101 H101       27.7066   23.1919   -3.6014 H         1 UNK         0.0767 
    102 H102       26.7844   24.6708   -3.5180 H         1 UNK         0.0767 
    103 H103       28.2982   24.5311   -2.6279 H         1 UNK         0.0767 
    104 H104       27.7413   22.8102   -0.0586 H         1 UNK         0.3013 
    105 H105       26.7192   28.8324    2.6410 H         1 UNK         0.3121 
    106 H106       26.3145   30.8727    4.8024 H         1 UNK         0.0774 
    107 H107       24.4621   30.0526    2.4981 H         1 UNK         0.0815 
    108 H108       24.1578   31.3428    3.6544 H         1 UNK         0.0815 
    109 H109       24.2191   29.6753    4.2025 H         1 UNK         0.0815 
    110 H110       26.8004   30.3060    1.2830 H         1 UNK         0.2987 
    111 H111       26.8754   33.0497    0.5725 H         1 UNK         0.0949 
    112 H112       27.9519   30.6102   -0.9364 H         1 UNK         0.0806 
    113 H113       26.3061   31.2312   -1.0167 H         1 UNK         0.0806 
    114 H114       27.6411   32.1931   -1.6309 H         1 UNK         0.0806 
    115 H115       29.5125   30.8392    1.4969 H         1 UNK         0.3010 
    116 H116       31.4817   33.0937    1.2779 H         1 UNK         0.0829 
    117 H117       32.0025   30.0689    1.2661 H         1 UNK         0.0813 
    118 H118       32.1176   31.1424   -0.1235 H         1 UNK         0.0813 
    119 H119       33.2216   31.3319    1.2289 H         1 UNK         0.0813 
    120 H120       30.5142   30.2487    3.2034 H         1 UNK         0.3038 
    121 H121       30.3648   29.7438    5.3173 H         1 UNK         0.0769 
    122 H122       29.8725   31.4657    7.0315 H         1 UNK         0.0811 
    123 H123       30.3708   32.7464    5.9357 H         1 UNK         0.0811 
    124 H124       28.9566   31.7634    5.5639 H         1 UNK         0.0811 
    125 H125       32.7561   32.3816    5.1942 H         1 UNK         0.3204 
    126 H126       34.5076   31.1352    7.2195 H         1 UNK         0.0748 
    127 H127       35.8765   33.1883    6.8533 H         1 UNK         0.0771 
    128 H128       34.8037   33.6930    5.5529 H         1 UNK         0.0771 
    129 H129       34.2069   33.5989    7.2091 H         1 UNK         0.0771 
    130 H130       34.3733   29.2003    5.6374 H         1 UNK         0.2980 
    131 H131       35.9115   29.2370    3.2573 H         1 UNK         0.0545 
    132 H132       37.9606   28.1134    2.7464 H         1 UNK         0.3459 
    133 H133       39.1928   28.0107    3.9785 H         1 UNK         0.3459 
    134 H134       35.4664   26.5884    4.6761 H         1 UNK         0.0616 
    135 H135       34.0485   27.4951    4.2632 H         1 UNK         0.0616 
    136 H136       33.4984   27.0867    0.6401 H         1 UNK         0.0634 
    137 H137       33.0517   27.8766    2.1294 H         1 UNK         0.0634 
@<TRIPOS>BOND
     1    1    2 1    
     2    1   72 1    
     3    1   73 1    
     4    1   74 1    
     5    2    3 2    
     6    2    4 am   BACKBONE|DICT|INTERRES
     7    4    5 1    
     8    4   75 1    
     9    5    6 1    
    10    5   35 1    
    11    5   76 1    
    12    6    7 1    
    13    6   77 1    
    14    6   78 1    
    15    7    8 1    
    16    8    9 1    
    17    8   79 1    
    18    8   80 1    
    19    9   10 ar   
    20    9   14 ar   
    21   10   11 ar   
    22   10   81 1    
    23   11   12 ar   
    24   11   71 1    
    25   12   13 ar   
    26   12   82 1    
    27   13   14 ar   
    28   13   15 1    
    29   14   83 1    
    30   15   16 1    
    31   15   84 1    
    32   15   85 1    
    33   16   17 1    
    34   17   18 1    
    35   17   86 1    
    36   17   87 1    
    37   18   19 1    
    38   18   37 1    
    39   18   88 1    
    40   19   20 am   BACKBONE|DICT|INTERRES
    41   19   89 1    
    42   20   21 2    
    43   20   22 1    
    44   22   23 1    
    45   22   24 1    
    46   22   90 1    
    47   23   91 1    
    48   23   92 1    
    49   23   93 1    
    50   24   25 am   BACKBONE|DICT|INTERRES
    51   24   94 1    
    52   25   26 2    
    53   25   27 1    
    54   27   28 1    
    55   27   29 1    
    56   27   95 1    
    57   28   96 1    
    58   28   97 1    
    59   28   98 1    
    60   29   30 am   BACKBONE|DICT|INTERRES
    61   29   99 1    
    62   30   31 2    
    63   30   32 1    
    64   32   33 1    
    65   32   34 1    
    66   32  100 1    
    67   33  101 1    
    68   33  102 1    
    69   33  103 1    
    70   34   35 am   BACKBONE|DICT|INTERRES
    71   34  104 1    
    72   35   36 2    
    73   37   38 2    
    74   37   39 am   BACKBONE|DICT|INTERRES
    75   39   40 1    
    76   39  105 1    
    77   40   41 1    
    78   40   42 1    
    79   40  106 1    
    80   41  107 1    
    81   41  108 1    
    82   41  109 1    
    83   42   43 2    
    84   42   44 am   BACKBONE|DICT|INTERRES
    85   44   45 1    
    86   44  110 1    
    87   45   46 1    
    88   45   47 1    
    89   45  111 1    
    90   46  112 1    
    91   46  113 1    
    92   46  114 1    
    93   47   48 2    
    94   47   49 am   BACKBONE|DICT|INTERRES
    95   49   50 1    
    96   49  115 1    
    97   50   51 1    
    98   50   52 1    
    99   50  116 1    
   100   51  117 1    
   101   51  118 1    
   102   51  119 1    
   103   52   53 2    
   104   52   54 am   BACKBONE|DICT|INTERRES
   105   54   55 1    
   106   54  120 1    
   107   55   56 1    
   108   55   57 1    
   109   55  121 1    
   110   56  122 1    
   111   56  123 1    
   112   56  124 1    
   113   57   58 2    
   114   57   59 am   BACKBONE|DICT|INTERRES
   115   59   60 1    
   116   59  125 1    
   117   60   61 1    
   118   60   62 1    
   119   60  126 1    
   120   61  127 1    
   121   61  128 1    
   122   61  129 1    
   123   62   63 2    
   124   62   64 am   BACKBONE|DICT|INTERRES
   125   64   65 1    
   126   64  130 1    
   127   65   66 1    
   128   65   69 1    
   129   65  131 1    
   130   66   67 am   BACKBONE|DICT|INTERRES
   131   66   68 2    
   132   67  132 1    
   133   67  133 1    
   134   69   70 1    
   135   69  134 1    
   136   69  135 1    
   137   70   71 1    
   138   71  136 1    
   139   71  137 1    
@<TRIPOS>SUBSTRUCTURE
     1 UNK         1 GROUP             0       ****    0 ROOT    
