@<TRIPOS>MOLECULE
3R136
137   139    1
SMALL
USER_CHARGES


@<TRIPOS>ATOM
      1 CA         34.2018   25.5078    1.3493 C.3       0 UNK        -0.1979 
      2 C          32.9723   24.9723    0.6354 C.2       0 UNK         0.4864 
      3 O          33.0814   24.5061   -0.5001 O.2       0 UNK        -0.5359 
      4 N          31.8059   25.0260    1.2940 N.am      1 UNK        -0.4318 
      5 CA         30.5162   24.4852    0.8478 C.3       1 UNK         0.0824 
      6 C6         30.5875   22.9725    0.4891 C.3       12 UNK        -0.0944 
      7 S7         29.0636   22.0587    0.8842 S.3       12 UNK        -0.2672 
      8 C8         29.4961   21.3449    2.5052 C.3       12 UNK         0.0333 
      9 C9         29.3221   22.3736    3.6104 C.ar      12 UNK        -0.0807 
     10 C10        30.4001   23.1455    4.0562 C.ar      12 UNK        -0.0894 
     11 C11        30.2075   24.1299    5.0308 C.ar      12 UNK        -0.0804 
     12 C12        28.9310   24.3224    5.5705 C.ar      12 UNK        -0.0824 
     13 C13        27.8424   23.5645    5.1255 C.ar      12 UNK        -0.0762 
     14 C14        28.0557   22.5738    4.1622 C.ar      12 UNK        -0.0782 
     15 C15        26.4443   23.8240    5.6851 C.3       12 UNK         0.0230 
     16 S16        25.1167   23.7339    4.4275 S.3       12 UNK        -0.2608 
     17 C17        25.1448   25.3434    3.5596 C.3       12 UNK        -0.0989 
     18 CA         26.4766   25.6710    2.8084 C.3       5 UNK         0.0716 
     19 N          26.2977   26.1331    1.4316 N.am      5 UNK        -0.4135 
     20 C          25.5719   27.1831    1.0240 C.2       4 UNK         0.5031 
     21 O          24.8450   27.8416    1.7692 O.2       4 UNK        -0.5229 
     22 CA         25.6656   27.5783   -0.4607 C.3       4 UNK         0.0329 
     23 CB         26.4661   28.8831   -0.6098 C.3       4 UNK        -0.2001 
     24 N          26.3145   26.5469   -1.2735 N.am      4 UNK        -0.4303 
     25 C          25.7574   25.8651   -2.2838 C.2       3 UNK         0.5044 
     26 O          24.5834   26.0043   -2.6314 O.2       3 UNK        -0.5152 
     27 CA         26.6548   24.8450   -3.0276 C.3       3 UNK         0.0319 
     28 CB         26.3082   24.7346   -4.5278 C.3       3 UNK        -0.2001 
     29 N          28.0969   25.0647   -2.8327 N.am      3 UNK        -0.4354 
     30 C          28.8077   26.1554   -3.1638 C.2       2 UNK         0.4964 
     31 O          28.3608   27.0714   -3.8556 O.2       2 UNK        -0.5047 
     32 CA         30.2424   26.2702   -2.5954 C.3       2 UNK         0.0288 
     33 CB         30.6128   27.7345   -2.2789 C.3       2 UNK        -0.2113 
     34 N          30.5476   25.4345   -1.4205 N.am      2 UNK        -0.4145 
     35 C          29.8716   25.3347   -0.2646 C.2       1 UNK         0.5006 
     36 O          28.7805   25.8684   -0.0608 O.2       1 UNK        -0.5103 
     37 C          27.4504   26.6287    3.5293 C.2       5 UNK         0.5055 
     38 O          28.5089   26.9212    2.9705 O.2       5 UNK        -0.5220 
     39 N          27.1124   27.0887    4.7427 N.am      6 UNK        -0.4450 
     40 CA         27.9542   27.8999    5.6284 C.3       6 UNK         0.0367 
     41 CB         27.4171   27.7836    7.0681 C.3       6 UNK        -0.1929 
     42 C          28.1073   29.3659    5.1738 C.2       6 UNK         0.5070 
     43 O          27.8678   30.2863    5.9579 O.2       6 UNK        -0.5237 
     44 N          28.5167   29.5650    3.9178 N.am      7 UNK        -0.4739 
     45 CA         28.9299   30.8523    3.3704 C.3       7 UNK         0.0276 
     46 CB         28.9019   30.7827    1.8347 C.3       7 UNK        -0.1927 
     47 C          30.3391   31.1719    3.8822 C.2       7 UNK         0.5013 
     48 O          31.2693   30.4238    3.5745 O.2       7 UNK        -0.5193 
     49 N          30.4820   32.2651    4.6438 N.am      8 UNK        -0.4253 
     50 CA         31.7338   32.6788    5.2935 C.3       8 UNK         0.0242 
     51 CB         31.4800   33.9356    6.1409 C.3       8 UNK        -0.2000 
     52 C          32.9070   32.9106    4.3248 C.2       8 UNK         0.4948 
     53 O          34.0527   32.6520    4.6917 O.2       8 UNK        -0.5275 
     54 N          32.5996   33.3448    3.0950 N.am      9 UNK        -0.4246 
     55 CA         33.5607   33.4982    2.0006 C.3       9 UNK         0.0261 
     56 CB         32.8980   34.2876    0.8595 C.3       9 UNK        -0.1959 
     57 C          34.1223   32.1627    1.4727 C.2       9 UNK         0.5033 
     58 O          35.1937   32.1725    0.8646 O.2       9 UNK        -0.5390 
     59 N          33.4013   31.0545    1.6947 N.am      10 UNK        -0.4215 
     60 CA         33.7931   29.7085    1.2846 C.3       10 UNK         0.0240 
     61 CB         32.5784   28.9855    0.6723 C.3       10 UNK        -0.1982 
     62 C          34.3595   28.9310    2.4795 C.2       10 UNK         0.4970 
     63 O          35.4907   28.4512    2.4053 O.2       10 UNK        -0.4916 
     64 N          33.5605   28.8047    3.5459 N.am      11 UNK        -0.4279 
     65 CA         33.8823   28.0186    4.7469 C.3       11 UNK         0.1003 
     66 C          34.8708   28.7090    5.7294 C.2       11 UNK         0.5709 
     67 N          35.1467   30.0022    5.6160 N.am      11 UNK        -0.7358 
     68 O          35.4127   28.0480    6.6121 O.2       11 UNK        -0.4999 
     69 C69        32.5973   27.5518    5.4806 C.3       12 UNK        -0.0954 
     70 S70        31.5387   26.4814    4.4463 S.3       12 UNK        -0.2268 
     71 C71        31.3681   25.0005    5.4932 C.3       12 UNK         0.0203 
     72 H72        33.9565   25.9107    2.3309 H         1 UNK         0.0888 
     73 H73        34.9315   24.7103    1.4854 H         1 UNK         0.0888 
     74 H74        34.6681   26.2960    0.7593 H         1 UNK         0.0888 
     75 H75        31.7758   25.4705    2.2035 H         1 UNK         0.3017 
     76 H76        29.8671   24.5987    1.7179 H         1 UNK         0.0873 
     77 H77        30.8221   22.8163   -0.5653 H         1 UNK         0.0745 
     78 H78        31.4090   22.4978    1.0272 H         1 UNK         0.0745 
     79 H79        30.5136   20.9514    2.4939 H         1 UNK         0.0705 
     80 H80        28.8460   20.4894    2.6952 H         1 UNK         0.0705 
     81 H81        31.3817   22.9993    3.6266 H         1 UNK         0.1334 
     82 H82        28.7829   25.0846    6.3219 H         1 UNK         0.1417 
     83 H83        27.2260   21.9759    3.8104 H         1 UNK         0.1562 
     84 H84        26.3928   24.7860    6.1948 H         1 UNK         0.0748 
     85 H85        26.2435   23.0683    6.4455 H         1 UNK         0.0748 
     86 H86        24.8075   26.1368    4.2268 H         1 UNK         0.0940 
     87 H87        24.3376   25.2658    2.8295 H         1 UNK         0.0940 
     88 H88        27.0310   24.7405    2.6875 H         1 UNK         0.0703 
     89 H89        26.9703   25.7537    0.7752 H         1 UNK         0.3081 
     90 H90        24.6469   27.7550   -0.8117 H         1 UNK         0.0719 
     91 H91        27.4921   28.7658   -0.2575 H         1 UNK         0.0809 
     92 H92        26.5057   29.2058   -1.6504 H         1 UNK         0.0809 
     93 H93        26.0104   29.6914   -0.0362 H         1 UNK         0.0809 
     94 H94        27.2861   26.3509   -1.0429 H         1 UNK         0.2990 
     95 H95        26.4387   23.8778   -2.5716 H         1 UNK         0.0690 
     96 H96        26.4183   25.6899   -5.0416 H         1 UNK         0.0788 
     97 H97        25.2767   24.4095   -4.6686 H         1 UNK         0.0788 
     98 H98        26.9459   24.0074   -5.0302 H         1 UNK         0.0788 
     99 H99        28.5638   24.3715   -2.2650 H         1 UNK         0.2993 
    100 H100       30.9022   25.9258   -3.3931 H         1 UNK         0.0949 
    101 H101       29.9854   28.1458   -1.4869 H         1 UNK         0.0767 
    102 H102       31.6519   27.8153   -1.9612 H         1 UNK         0.0767 
    103 H103       30.4988   28.3753   -3.1541 H         1 UNK         0.0767 
    104 H104       31.4517   24.9672   -1.4388 H         1 UNK         0.3013 
    105 H105       26.2008   26.8502    5.1020 H         1 UNK         0.3121 
    106 H106       28.9588   27.4733    5.6194 H         1 UNK         0.0774 
    107 H107       28.0561   28.3240    7.7680 H         1 UNK         0.0815 
    108 H108       26.4126   28.1990    7.1579 H         1 UNK         0.0815 
    109 H109       27.3837   26.7481    7.4049 H         1 UNK         0.0815 
    110 H110       28.7128   28.7362    3.3598 H         1 UNK         0.2987 
    111 H111       28.2328   31.6271    3.6971 H         1 UNK         0.0949 
    112 H112       29.5349   29.9810    1.4517 H         1 UNK         0.0806 
    113 H113       27.8896   30.6106    1.4704 H         1 UNK         0.0806 
    114 H114       29.2512   31.7165    1.3923 H         1 UNK         0.0806 
    115 H115       29.6617   32.8142    4.8589 H         1 UNK         0.3010 
    116 H116       32.0305   31.8695    5.9644 H         1 UNK         0.0829 
    117 H117       32.3903   34.2511    6.6532 H         1 UNK         0.0813 
    118 H118       31.1425   34.7742    5.5305 H         1 UNK         0.0813 
    119 H119       30.7273   33.7527    6.9081 H         1 UNK         0.0813 
    120 H120       31.6315   33.5403    2.8853 H         1 UNK         0.3038 
    121 H121       34.4056   34.0806    2.3744 H         1 UNK         0.0769 
    122 H122       33.5984   34.4489    0.0387 H         1 UNK         0.0811 
    123 H123       32.5659   35.2700    1.1958 H         1 UNK         0.0811 
    124 H124       32.0346   33.7606    0.4513 H         1 UNK         0.0811 
    125 H125       32.5627   31.1180    2.2631 H         1 UNK         0.3204 
    126 H126       34.5686   29.7587    0.5172 H         1 UNK         0.0748 
    127 H127       32.8620   28.0073    0.2855 H         1 UNK         0.0771 
    128 H128       31.7776   28.8290    1.3960 H         1 UNK         0.0771 
    129 H129       32.1638   29.5526   -0.1611 H         1 UNK         0.0771 
    130 H130       32.6526   29.2656    3.5469 H         1 UNK         0.2980 
    131 H131       34.4002   27.1171    4.4143 H         1 UNK         0.0545 
    132 H132       34.6922   30.5865    4.9280 H         1 UNK         0.3459 
    133 H133       35.7959   30.4189    6.2635 H         1 UNK         0.3459 
    134 H134       32.8551   27.0132    6.3941 H         1 UNK         0.0616 
    135 H135       32.0053   28.4141    5.7930 H         1 UNK         0.0616 
    136 H136       31.2073   25.3025    6.5292 H         1 UNK         0.0634 
    137 H137       32.3009   24.4351    5.4747 H         1 UNK         0.0634 
@<TRIPOS>BOND
     1    1    2 1    
     2    1   72 1    
     3    1   73 1    
     4    1   74 1    
     5    2    3 2    
     6    2    4 am   BACKBONE|DICT|INTERRES
     7    4    5 1    
     8    4   75 1    
     9    5    6 1    
    10    5   35 1    
    11    5   76 1    
    12    6    7 1    
    13    6   77 1    
    14    6   78 1    
    15    7    8 1    
    16    8    9 1    
    17    8   79 1    
    18    8   80 1    
    19    9   10 ar   
    20    9   14 ar   
    21   10   11 ar   
    22   10   81 1    
    23   11   12 ar   
    24   11   71 1    
    25   12   13 ar   
    26   12   82 1    
    27   13   14 ar   
    28   13   15 1    
    29   14   83 1    
    30   15   16 1    
    31   15   84 1    
    32   15   85 1    
    33   16   17 1    
    34   17   18 1    
    35   17   86 1    
    36   17   87 1    
    37   18   19 1    
    38   18   37 1    
    39   18   88 1    
    40   19   20 am   BACKBONE|DICT|INTERRES
    41   19   89 1    
    42   20   21 2    
    43   20   22 1    
    44   22   23 1    
    45   22   24 1    
    46   22   90 1    
    47   23   91 1    
    48   23   92 1    
    49   23   93 1    
    50   24   25 am   BACKBONE|DICT|INTERRES
    51   24   94 1    
    52   25   26 2    
    53   25   27 1    
    54   27   28 1    
    55   27   29 1    
    56   27   95 1    
    57   28   96 1    
    58   28   97 1    
    59   28   98 1    
    60   29   30 am   BACKBONE|DICT|INTERRES
    61   29   99 1    
    62   30   31 2    
    63   30   32 1    
    64   32   33 1    
    65   32   34 1    
    66   32  100 1    
    67   33  101 1    
    68   33  102 1    
    69   33  103 1    
    70   34   35 am   BACKBONE|DICT|INTERRES
    71   34  104 1    
    72   35   36 2    
    73   37   38 2    
    74   37   39 am   BACKBONE|DICT|INTERRES
    75   39   40 1    
    76   39  105 1    
    77   40   41 1    
    78   40   42 1    
    79   40  106 1    
    80   41  107 1    
    81   41  108 1    
    82   41  109 1    
    83   42   43 2    
    84   42   44 am   BACKBONE|DICT|INTERRES
    85   44   45 1    
    86   44  110 1    
    87   45   46 1    
    88   45   47 1    
    89   45  111 1    
    90   46  112 1    
    91   46  113 1    
    92   46  114 1    
    93   47   48 2    
    94   47   49 am   BACKBONE|DICT|INTERRES
    95   49   50 1    
    96   49  115 1    
    97   50   51 1    
    98   50   52 1    
    99   50  116 1    
   100   51  117 1    
   101   51  118 1    
   102   51  119 1    
   103   52   53 2    
   104   52   54 am   BACKBONE|DICT|INTERRES
   105   54   55 1    
   106   54  120 1    
   107   55   56 1    
   108   55   57 1    
   109   55  121 1    
   110   56  122 1    
   111   56  123 1    
   112   56  124 1    
   113   57   58 2    
   114   57   59 am   BACKBONE|DICT|INTERRES
   115   59   60 1    
   116   59  125 1    
   117   60   61 1    
   118   60   62 1    
   119   60  126 1    
   120   61  127 1    
   121   61  128 1    
   122   61  129 1    
   123   62   63 2    
   124   62   64 am   BACKBONE|DICT|INTERRES
   125   64   65 1    
   126   64  130 1    
   127   65   66 1    
   128   65   69 1    
   129   65  131 1    
   130   66   67 am   BACKBONE|DICT|INTERRES
   131   66   68 2    
   132   67  132 1    
   133   67  133 1    
   134   69   70 1    
   135   69  134 1    
   136   69  135 1    
   137   70   71 1    
   138   71  136 1    
   139   71  137 1    
@<TRIPOS>SUBSTRUCTURE
     1 UNK         1 GROUP             0       ****    0 ROOT    
