@<TRIPOS>MOLECULE
3R136
137   139    1
SMALL
USER_CHARGES


@<TRIPOS>ATOM
      1 CA         29.9317   19.3322    2.8013 C.3       0 UNK        -0.1979 
      2 C          28.7814   19.6779    1.8672 C.2       0 UNK         0.4864 
      3 O          27.6613   19.2107    2.0757 O.2       0 UNK        -0.5359 
      4 N          29.0502   20.4968    0.8406 N.am      1 UNK        -0.4318 
      5 CA         28.0745   20.9463   -0.1621 C.3       1 UNK         0.0824 
      6 C6         28.7777   21.5245   -1.4217 C.3       12 UNK        -0.0944 
      7 S7         29.5953   23.1423   -1.1741 S.3       12 UNK        -0.2672 
      8 C8         31.2941   22.6608   -0.7251 C.3       12 UNK         0.0333 
      9 C9         31.8450   23.5985    0.3384 C.ar      12 UNK        -0.0807 
     10 C10        32.8684   24.5027    0.0346 C.ar      12 UNK        -0.0894 
     11 C11        33.3377   25.4037    0.9982 C.ar      12 UNK        -0.0804 
     12 C12        32.7787   25.3725    2.2816 C.ar      12 UNK        -0.0824 
     13 C13        31.7472   24.4840    2.5947 C.ar      12 UNK        -0.0762 
     14 C14        31.2956   23.5901    1.6235 C.ar      12 UNK        -0.0782 
     15 C15        31.1047   24.4965    3.9743 C.3       12 UNK         0.0230 
     16 S16        29.5888   25.5105    4.0021 S.3       12 UNK        -0.2608 
     17 C17        30.2839   27.1999    4.0107 C.3       12 UNK        -0.0989 
     18 CA         29.6666   28.1759    2.9770 C.3       5 UNK         0.0716 
     19 N          29.4797   27.5916    1.6413 N.am      5 UNK        -0.4135 
     20 C          29.2925   28.3020    0.5183 C.2       4 UNK         0.5031 
     21 O          29.1950   29.5282    0.4944 O.2       4 UNK        -0.5229 
     22 CA         29.1599   27.5202   -0.7956 C.3       4 UNK         0.0329 
     23 CB         30.4384   26.7333   -1.1080 C.3       4 UNK        -0.2001 
     24 N          28.0073   26.6212   -0.7730 N.am      4 UNK        -0.4303 
     25 C          26.7336   27.0367   -0.8223 C.2       3 UNK         0.5044 
     26 O          26.3994   28.2132   -0.9636 O.2       3 UNK        -0.5152 
     27 CA         25.6393   25.9652   -0.6785 C.3       3 UNK         0.0319 
     28 CB         25.2462   25.4128   -2.0578 C.3       3 UNK        -0.2001 
     29 N          25.9859   24.8468    0.2030 N.am      3 UNK        -0.4354 
     30 C          26.3489   24.9321    1.4890 C.2       2 UNK         0.4964 
     31 O          26.5198   25.9984    2.0778 O.2       2 UNK        -0.5047 
     32 CA         26.5683   23.6133    2.2523 C.3       2 UNK         0.0288 
     33 CB         25.2334   23.0515    2.7783 C.3       2 UNK        -0.2113 
     34 N          27.3315   22.5931    1.5176 N.am      2 UNK        -0.4145 
     35 C          27.0086   21.9153    0.4028 C.2       1 UNK         0.5006 
     36 O          25.9423   22.0515   -0.2002 O.2       1 UNK        -0.5103 
     37 C          28.4349   28.9220    3.5306 C.2       5 UNK         0.5055 
     38 O          28.5977   29.7470    4.4299 O.2       5 UNK        -0.5220 
     39 N          27.2430   28.6859    2.9637 N.am      6 UNK        -0.4450 
     40 CA         26.0440   29.4994    3.1875 C.3       6 UNK         0.0367 
     41 CB         24.8457   28.8492    2.4778 C.3       6 UNK        -0.1929 
     42 C          26.2017   30.9680    2.7389 C.2       6 UNK         0.5070 
     43 O          25.5267   31.8342    3.2963 O.2       6 UNK        -0.5237 
     44 N          27.0823   31.2247    1.7608 N.am      7 UNK        -0.4739 
     45 CA         27.4443   32.5609    1.2877 C.3       7 UNK         0.0276 
     46 CB         27.3037   32.6150   -0.2431 C.3       7 UNK        -0.1927 
     47 C          28.8737   32.9157    1.7218 C.2       7 UNK         0.5013 
     48 O          29.0801   33.9490    2.3600 O.2       7 UNK        -0.5193 
     49 N          29.8391   32.0505    1.3863 N.am      8 UNK        -0.4253 
     50 CA         31.2625   32.2017    1.6848 C.3       8 UNK         0.0242 
     51 CB         32.0779   31.4656    0.6041 C.3       8 UNK        -0.2000 
     52 C          31.5726   31.6880    3.0990 C.2       8 UNK         0.4948 
     53 O          32.2757   30.6883    3.2504 O.2       8 UNK        -0.5275 
     54 N          31.0391   32.3830    4.1124 N.am      9 UNK        -0.4246 
     55 CA         31.0856   32.0191    5.5362 C.3       9 UNK         0.0261 
     56 CB         30.2985   33.0660    6.3413 C.3       9 UNK        -0.1959 
     57 C          32.4913   31.8182    6.1385 C.2       9 UNK         0.5033 
     58 O          32.6074   31.1795    7.1853 O.2       9 UNK        -0.5390 
     59 N          33.5288   32.3512    5.4793 N.am      10 UNK        -0.4215 
     60 CA         34.9357   32.1210    5.8102 C.3       10 UNK         0.0240 
     61 CB         35.8004   33.1610    5.0788 C.3       10 UNK        -0.1982 
     62 C          35.4188   30.6941    5.4809 C.2       10 UNK         0.4970 
     63 O          36.3756   30.2372    6.1080 O.2       10 UNK        -0.4916 
     64 N          34.7807   30.0238    4.5104 N.am      11 UNK        -0.4279 
     65 CA         35.0765   28.6380    4.1287 C.3       11 UNK         0.1003 
     66 C          34.4501   27.6306    5.1310 C.2       11 UNK         0.5709 
     67 N          35.1522   26.5531    5.4538 N.am      11 UNK        -0.7358 
     68 O          33.3216   27.7963    5.5882 O.2       11 UNK        -0.4999 
     69 C69        34.6414   28.3634    2.6639 C.3       12 UNK        -0.0954 
     70 S70        35.5336   26.9468    1.9312 S.3       12 UNK        -0.2268 
     71 C71        34.3999   26.4295    0.5965 C.3       12 UNK         0.0203 
     72 H72        29.6961   19.6449    3.8183 H         1 UNK         0.0888 
     73 H73        30.0994   18.2555    2.8063 H         1 UNK         0.0888 
     74 H74        30.8611   19.8183    2.5043 H         1 UNK         0.0888 
     75 H75        29.9960   20.8179    0.7016 H         1 UNK         0.3017 
     76 H76        27.5266   20.0578   -0.4841 H         1 UNK         0.0873 
     77 H77        29.5021   20.8083   -1.8133 H         1 UNK         0.0745 
     78 H78        28.0436   21.6518   -2.2196 H         1 UNK         0.0745 
     79 H79        31.9147   22.6757   -1.6224 H         1 UNK         0.0705 
     80 H80        31.3241   21.6382   -0.3498 H         1 UNK         0.0705 
     81 H81        33.2791   24.5267   -0.9657 H         1 UNK         0.1334 
     82 H82        33.1311   26.0495    3.0426 H         1 UNK         0.1417 
     83 H83        30.4941   22.9073    1.8621 H         1 UNK         0.1562 
     84 H84        31.8071   24.8629    4.7252 H         1 UNK         0.0748 
     85 H85        30.8511   23.4773    4.2699 H         1 UNK         0.0748 
     86 H86        31.3538   27.1468    3.8239 H         1 UNK         0.0940 
     87 H87        30.2130   27.5984    5.0251 H         1 UNK         0.0940 
     88 H88        30.4087   28.9624    2.8388 H         1 UNK         0.0703 
     89 H89        29.5076   26.5833    1.5966 H         1 UNK         0.3081 
     90 H90        29.0127   28.2452   -1.5993 H         1 UNK         0.0719 
     91 H91        31.3124   27.3861   -1.1174 H         1 UNK         0.0809 
     92 H92        30.3814   26.2488   -2.0828 H         1 UNK         0.0809 
     93 H93        30.6140   25.9618   -0.3619 H         1 UNK         0.0809 
     94 H94        28.1892   25.6331   -0.6680 H         1 UNK         0.2990 
     95 H95        24.7651   26.4547   -0.2444 H         1 UNK         0.0690 
     96 H96        24.3962   24.7340   -1.9858 H         1 UNK         0.0788 
     97 H97        26.0701   24.8701   -2.5235 H         1 UNK         0.0788 
     98 H98        24.9598   26.2184   -2.7355 H         1 UNK         0.0788 
     99 H99        25.8667   23.9095   -0.1740 H         1 UNK         0.2993 
    100 H100       27.1771   23.8630    3.1226 H         1 UNK         0.0949 
    101 H101       24.7253   23.7843    3.4068 H         1 UNK         0.0767 
    102 H102       24.5504   22.7909    1.9693 H         1 UNK         0.0767 
    103 H103       25.3917   22.1589    3.3838 H         1 UNK         0.0767 
    104 H104       28.2429   22.3973    1.9025 H         1 UNK         0.3013 
    105 H105       27.1534   27.9029    2.3236 H         1 UNK         0.3121 
    106 H106       25.8442   29.5058    4.2609 H         1 UNK         0.0774 
    107 H107       23.9362   29.4312    2.6329 H         1 UNK         0.0815 
    108 H108       25.0069   28.7756    1.4018 H         1 UNK         0.0815 
    109 H109       24.6549   27.8459    2.8587 H         1 UNK         0.0815 
    110 H110       27.6123   30.4523    1.3700 H         1 UNK         0.2987 
    111 H111       26.7766   33.3137    1.7124 H         1 UNK         0.0949 
    112 H112       26.2710   32.4458   -0.5482 H         1 UNK         0.0806 
    113 H113       27.5999   33.5914   -0.6290 H         1 UNK         0.0806 
    114 H114       27.9220   31.8647   -0.7380 H         1 UNK         0.0806 
    115 H115       29.5751   31.1776    0.9293 H         1 UNK         0.3010 
    116 H116       31.5319   33.2595    1.6458 H         1 UNK         0.0829 
    117 H117       31.8674   31.8610   -0.3895 H         1 UNK         0.0813 
    118 H118       33.1488   31.5780    0.7784 H         1 UNK         0.0813 
    119 H119       31.8614   30.3964    0.5910 H         1 UNK         0.0813 
    120 H120       30.4519   33.1724    3.8676 H         1 UNK         0.3038 
    121 H121       30.5727   31.0608    5.6338 H         1 UNK         0.0769 
    122 H122       30.7394   34.0594    6.2498 H         1 UNK         0.0811 
    123 H123       30.2804   32.8128    7.4023 H         1 UNK         0.0811 
    124 H124       29.2620   33.1244    6.0079 H         1 UNK         0.0811 
    125 H125       33.3353   32.8685    4.6346 H         1 UNK         0.3204 
    126 H126       35.0606   32.2689    6.8851 H         1 UNK         0.0748 
    127 H127       36.8551   33.0368    5.3290 H         1 UNK         0.0771 
    128 H128       35.7103   33.0723    3.9952 H         1 UNK         0.0771 
    129 H129       35.5212   34.1772    5.3582 H         1 UNK         0.0771 
    130 H130       33.9434   30.4198    4.0904 H         1 UNK         0.2980 
    131 H131       36.1619   28.5244    4.1733 H         1 UNK         0.0545 
    132 H132       36.0675   26.3940    5.0627 H         1 UNK         0.3459 
    133 H133       34.7576   25.8851    6.0965 H         1 UNK         0.3459 
    134 H134       33.5611   28.2273    2.5890 H         1 UNK         0.0616 
    135 H135       34.8700   29.2294    2.0405 H         1 UNK         0.0616 
    136 H136       33.9058   27.3080    0.1793 H         1 UNK         0.0634 
    137 H137       35.0147   26.0161   -0.2045 H         1 UNK         0.0634 
@<TRIPOS>BOND
     1    1    2 1    
     2    1   72 1    
     3    1   73 1    
     4    1   74 1    
     5    2    3 2    
     6    2    4 am   BACKBONE|DICT|INTERRES
     7    4    5 1    
     8    4   75 1    
     9    5    6 1    
    10    5   35 1    
    11    5   76 1    
    12    6    7 1    
    13    6   77 1    
    14    6   78 1    
    15    7    8 1    
    16    8    9 1    
    17    8   79 1    
    18    8   80 1    
    19    9   10 ar   
    20    9   14 ar   
    21   10   11 ar   
    22   10   81 1    
    23   11   12 ar   
    24   11   71 1    
    25   12   13 ar   
    26   12   82 1    
    27   13   14 ar   
    28   13   15 1    
    29   14   83 1    
    30   15   16 1    
    31   15   84 1    
    32   15   85 1    
    33   16   17 1    
    34   17   18 1    
    35   17   86 1    
    36   17   87 1    
    37   18   19 1    
    38   18   37 1    
    39   18   88 1    
    40   19   20 am   BACKBONE|DICT|INTERRES
    41   19   89 1    
    42   20   21 2    
    43   20   22 1    
    44   22   23 1    
    45   22   24 1    
    46   22   90 1    
    47   23   91 1    
    48   23   92 1    
    49   23   93 1    
    50   24   25 am   BACKBONE|DICT|INTERRES
    51   24   94 1    
    52   25   26 2    
    53   25   27 1    
    54   27   28 1    
    55   27   29 1    
    56   27   95 1    
    57   28   96 1    
    58   28   97 1    
    59   28   98 1    
    60   29   30 am   BACKBONE|DICT|INTERRES
    61   29   99 1    
    62   30   31 2    
    63   30   32 1    
    64   32   33 1    
    65   32   34 1    
    66   32  100 1    
    67   33  101 1    
    68   33  102 1    
    69   33  103 1    
    70   34   35 am   BACKBONE|DICT|INTERRES
    71   34  104 1    
    72   35   36 2    
    73   37   38 2    
    74   37   39 am   BACKBONE|DICT|INTERRES
    75   39   40 1    
    76   39  105 1    
    77   40   41 1    
    78   40   42 1    
    79   40  106 1    
    80   41  107 1    
    81   41  108 1    
    82   41  109 1    
    83   42   43 2    
    84   42   44 am   BACKBONE|DICT|INTERRES
    85   44   45 1    
    86   44  110 1    
    87   45   46 1    
    88   45   47 1    
    89   45  111 1    
    90   46  112 1    
    91   46  113 1    
    92   46  114 1    
    93   47   48 2    
    94   47   49 am   BACKBONE|DICT|INTERRES
    95   49   50 1    
    96   49  115 1    
    97   50   51 1    
    98   50   52 1    
    99   50  116 1    
   100   51  117 1    
   101   51  118 1    
   102   51  119 1    
   103   52   53 2    
   104   52   54 am   BACKBONE|DICT|INTERRES
   105   54   55 1    
   106   54  120 1    
   107   55   56 1    
   108   55   57 1    
   109   55  121 1    
   110   56  122 1    
   111   56  123 1    
   112   56  124 1    
   113   57   58 2    
   114   57   59 am   BACKBONE|DICT|INTERRES
   115   59   60 1    
   116   59  125 1    
   117   60   61 1    
   118   60   62 1    
   119   60  126 1    
   120   61  127 1    
   121   61  128 1    
   122   61  129 1    
   123   62   63 2    
   124   62   64 am   BACKBONE|DICT|INTERRES
   125   64   65 1    
   126   64  130 1    
   127   65   66 1    
   128   65   69 1    
   129   65  131 1    
   130   66   67 am   BACKBONE|DICT|INTERRES
   131   66   68 2    
   132   67  132 1    
   133   67  133 1    
   134   69   70 1    
   135   69  134 1    
   136   69  135 1    
   137   70   71 1    
   138   71  136 1    
   139   71  137 1    
@<TRIPOS>SUBSTRUCTURE
     1 UNK         1 GROUP             0       ****    0 ROOT    
