@<TRIPOS>MOLECULE
3R136
137   139    1
SMALL
USER_CHARGES


@<TRIPOS>ATOM
      1 CA         30.4100   21.7921    4.4836 C.3       0 UNK        -0.1979 
      2 C          29.4769   20.9643    3.6109 C.2       0 UNK         0.4864 
      3 O          28.8699   20.0081    4.0963 O.2       0 UNK        -0.5359 
      4 N          29.3647   21.3242    2.3269 N.am      1 UNK        -0.4318 
      5 CA         28.4364   20.7338    1.3585 C.3       1 UNK         0.0824 
      6 C6         28.9657   20.8885   -0.0944 C.3       12 UNK        -0.0944 
      7 S7         29.2789   22.6188   -0.5889 S.3       12 UNK        -0.2672 
      8 C8         31.0942   22.7051   -0.5096 C.3       12 UNK         0.0333 
      9 C9         31.5738   24.1168   -0.2024 C.ar      12 UNK        -0.0807 
     10 C10        31.9597   24.4590    1.0976 C.ar      12 UNK        -0.0894 
     11 C11        32.4542   25.7356    1.3806 C.ar      12 UNK        -0.0804 
     12 C12        32.5634   26.6727    0.3498 C.ar      12 UNK        -0.0824 
     13 C13        32.1469   26.3569   -0.9478 C.ar      12 UNK        -0.0762 
     14 C14        31.6558   25.0749   -1.2183 C.ar      12 UNK        -0.0782 
     15 C15        32.2552   27.3878   -2.0645 C.3       12 UNK         0.0230 
     16 S16        30.7281   28.3672   -2.2571 S.3       12 UNK        -0.2608 
     17 C17        30.7954   29.4652   -0.7970 C.3       12 UNK        -0.0989 
     18 CA         29.6550   29.2275    0.2336 C.3       5 UNK         0.0716 
     19 N          29.4522   27.8001    0.5162 N.am      5 UNK        -0.4135 
     20 C          28.3302   27.2380    0.9784 C.2       4 UNK         0.5031 
     21 O          27.3504   27.8794    1.3657 O.2       4 UNK        -0.5229 
     22 CA         28.3196   25.7053    1.0628 C.3       4 UNK         0.0329 
     23 CB         28.6049   25.2398    2.4991 C.3       4 UNK        -0.2001 
     24 N          27.0518   25.1267    0.6107 N.am      4 UNK        -0.4303 
     25 C          26.5445   25.2483   -0.6254 C.2       3 UNK         0.5044 
     26 O          27.1061   25.8496   -1.5428 O.2       3 UNK        -0.5152 
     27 CA         25.2003   24.5467   -0.8785 C.3       3 UNK         0.0319 
     28 CB         24.7803   24.5496   -2.3613 C.3       3 UNK        -0.2001 
     29 N          25.2685   23.1682   -0.3963 N.am      3 UNK        -0.4354 
     30 C          24.3348   22.5573    0.3437 C.2       2 UNK         0.4964 
     31 O          23.2676   23.0813    0.6654 O.2       2 UNK        -0.5047 
     32 CA         24.6277   21.1172    0.8141 C.3       2 UNK         0.0288 
     33 CB         23.8276   20.1078   -0.0264 C.3       2 UNK        -0.2113 
     34 N          26.0455   20.7328    0.7959 N.am      2 UNK        -0.4145 
     35 C          27.0078   21.2998    1.5384 C.2       1 UNK         0.5006 
     36 O          26.7966   22.2402    2.3100 O.2       1 UNK        -0.5103 
     37 C          29.8736   30.0687    1.5148 C.2       5 UNK         0.5055 
     38 O          30.6692   31.0107    1.4960 O.2       5 UNK        -0.5220 
     39 N          29.1888   29.7222    2.6132 N.am      6 UNK        -0.4450 
     40 CA         29.4055   30.2373    3.9696 C.3       6 UNK         0.0367 
     41 CB         28.5002   29.4768    4.9496 C.3       6 UNK        -0.1929 
     42 C          29.2280   31.7570    4.1270 C.2       6 UNK         0.5070 
     43 O          29.8156   32.3378    5.0376 O.2       6 UNK        -0.5237 
     44 N          28.4692   32.3856    3.2200 N.am      7 UNK        -0.4739 
     45 CA         28.3111   33.8395    3.1298 C.3       7 UNK         0.0276 
     46 CB         27.1897   34.1590    2.1278 C.3       7 UNK        -0.1927 
     47 C          29.6041   34.5878    2.7450 C.2       7 UNK         0.5013 
     48 O          29.7067   35.7786    3.0434 O.2       7 UNK        -0.5193 
     49 N          30.5506   33.8967    2.0928 N.am      8 UNK        -0.4253 
     50 CA         31.8330   34.4486    1.6499 C.3       8 UNK         0.0242 
     51 CB         31.8934   34.4168    0.1131 C.3       8 UNK        -0.2000 
     52 C          33.0234   33.6850    2.2474 C.2       8 UNK         0.4948 
     53 O          33.9850   34.3170    2.6856 O.2       8 UNK        -0.5275 
     54 N          32.9536   32.3476    2.2445 N.am      9 UNK        -0.4246 
     55 CA         34.0436   31.4521    2.6387 C.3       9 UNK         0.0261 
     56 CB         33.9437   30.1673    1.7981 C.3       9 UNK        -0.1959 
     57 C          34.0511   31.1008    4.1353 C.2       9 UNK         0.5033 
     58 O          34.9897   30.4347    4.5760 O.2       9 UNK        -0.5390 
     59 N          33.0067   31.4930    4.8818 N.am      10 UNK        -0.4215 
     60 CA         32.7201   31.1850    6.2938 C.3       10 UNK         0.0240 
     61 CB         33.8326   31.6901    7.2344 C.3       10 UNK        -0.1982 
     62 C          32.3899   29.7034    6.5584 C.2       10 UNK         0.4970 
     63 O          31.4017   29.4237    7.2368 O.2       10 UNK        -0.4916 
     64 N          33.2074   28.7948    6.0130 N.am      11 UNK        -0.4279 
     65 CA         33.0788   27.3287    6.0715 C.3       11 UNK         0.1003 
     66 C          33.2289   26.7131    7.4972 C.2       11 UNK         0.5709 
     67 N          33.7906   27.4243    8.4679 N.am      11 UNK        -0.7358 
     68 O          32.8674   25.5606    7.7242 O.2       11 UNK        -0.4999 
     69 C69        31.8292   26.7974    5.3097 C.3       12 UNK        -0.0954 
     70 S70        31.7777   27.3086    3.5585 S.3       12 UNK        -0.2268 
     71 C71        32.8953   26.0920    2.7934 C.3       12 UNK         0.0203 
     72 H72        31.2343   21.1762    4.8420 H         1 UNK         0.0888 
     73 H73        30.8289   22.6415    3.9445 H         1 UNK         0.0888 
     74 H74        29.8702   22.1767    5.3485 H         1 UNK         0.0888 
     75 H75        29.8515   22.1423    1.9939 H         1 UNK         0.3017 
     76 H76        28.3699   19.6636    1.5671 H         1 UNK         0.0873 
     77 H77        28.2716   20.4501   -0.8131 H         1 UNK         0.0745 
     78 H78        29.8846   20.3112   -0.2081 H         1 UNK         0.0745 
     79 H79        31.5104   22.3666   -1.4596 H         1 UNK         0.0705 
     80 H80        31.4687   22.0160    0.2488 H         1 UNK         0.0705 
     81 H81        31.8936   23.7245    1.8878 H         1 UNK         0.1334 
     82 H82        32.9702   27.6498    0.5662 H         1 UNK         0.1417 
     83 H83        31.3453   24.8178   -2.2223 H         1 UNK         0.1562 
     84 H84        32.4640   26.8825   -3.0087 H         1 UNK         0.0748 
     85 H85        33.1014   28.0544   -1.8903 H         1 UNK         0.0748 
     86 H86        30.7518   30.4937   -1.1607 H         1 UNK         0.0940 
     87 H87        31.7727   29.3729   -0.3237 H         1 UNK         0.0940 
     88 H88        28.7329   29.5995   -0.2177 H         1 UNK         0.0703 
     89 H89        30.2186   27.1967    0.2491 H         1 UNK         0.3081 
     90 H90        29.1046   25.3248    0.4100 H         1 UNK         0.0719 
     91 H91        27.8356   25.5783    3.1942 H         1 UNK         0.0809 
     92 H92        28.6592   24.1542    2.5606 H         1 UNK         0.0809 
     93 H93        29.5590   25.6260    2.8541 H         1 UNK         0.0809 
     94 H94        26.5326   24.5929    1.2940 H         1 UNK         0.2990 
     95 H95        24.4543   25.1084   -0.3124 H         1 UNK         0.0690 
     96 H96        23.8101   24.0719   -2.4983 H         1 UNK         0.0788 
     97 H97        25.5043   24.0237   -2.9850 H         1 UNK         0.0788 
     98 H98        24.6958   25.5679   -2.7429 H         1 UNK         0.0788 
     99 H99        26.1285   22.6744   -0.5925 H         1 UNK         0.2993 
    100 H100       24.2841   21.0487    1.8487 H         1 UNK         0.0949 
    101 H101       24.1439   20.1118   -1.0703 H         1 UNK         0.0767 
    102 H102       23.9400   19.0932    0.3566 H         1 UNK         0.0767 
    103 H103       22.7618   20.3409   -0.0083 H         1 UNK         0.0767 
    104 H104       26.2912   19.9680    0.1836 H         1 UNK         0.3013 
    105 H105       28.4990   28.9847    2.5063 H         1 UNK         0.3121 
    106 H106       30.4418   30.0143    4.2286 H         1 UNK         0.0774 
    107 H107       28.6703   29.8093    5.9748 H         1 UNK         0.0815 
    108 H108       27.4439   29.6284    4.7248 H         1 UNK         0.0815 
    109 H109       28.7017   28.4056    4.9232 H         1 UNK         0.0815 
    110 H110       28.0222   31.8290    2.5058 H         1 UNK         0.2987 
    111 H111       28.0080   34.2051    4.1135 H         1 UNK         0.0949 
    112 H112       27.0229   35.2350    2.0588 H         1 UNK         0.0806 
    113 H113       27.4298   33.8020    1.1254 H         1 UNK         0.0806 
    114 H114       26.2452   33.7063    2.4301 H         1 UNK         0.0806 
    115 H115       30.3865   32.9130    1.9025 H         1 UNK         0.3010 
    116 H116       31.9314   35.4888    1.9678 H         1 UNK         0.0829 
    117 H117       31.1035   35.0273   -0.3246 H         1 UNK         0.0813 
    118 H118       32.8445   34.8090   -0.2498 H         1 UNK         0.0813 
    119 H119       31.7865   33.4033   -0.2764 H         1 UNK         0.0813 
    120 H120       32.1177   31.8923    1.8777 H         1 UNK         0.3038 
    121 H121       35.0000   31.9293    2.4139 H         1 UNK         0.0769 
    122 H122       34.7702   29.4889    2.0140 H         1 UNK         0.0811 
    123 H123       33.9761   30.3866    0.7309 H         1 UNK         0.0811 
    124 H124       33.0191   29.6279    2.0042 H         1 UNK         0.0811 
    125 H125       32.2840   32.0218    4.4126 H         1 UNK         0.3204 
    126 H126       31.8213   31.7497    6.5422 H         1 UNK         0.0748 
    127 H127       33.5461   31.5567    8.2784 H         1 UNK         0.0771 
    128 H128       34.7726   31.1577    7.0884 H         1 UNK         0.0771 
    129 H129       34.0234   32.7528    7.0848 H         1 UNK         0.0771 
    130 H130       33.9999   29.1525    5.4849 H         1 UNK         0.2980 
    131 H131       33.9521   26.9544    5.5369 H         1 UNK         0.0545 
    132 H132       33.8950   27.0148    9.3828 H         1 UNK         0.3459 
    133 H133       34.1043   28.3654    8.2950 H         1 UNK         0.3459 
    134 H134       30.9157   27.1506    5.7900 H         1 UNK         0.0616 
    135 H135       31.7789   25.7081    5.3467 H         1 UNK         0.0616 
    136 H136       32.9459   25.1926    3.4084 H         1 UNK         0.0634 
    137 H137       33.9049   26.5045    2.7705 H         1 UNK         0.0634 
@<TRIPOS>BOND
     1    1    2 1    
     2    1   72 1    
     3    1   73 1    
     4    1   74 1    
     5    2    3 2    
     6    2    4 am   BACKBONE|DICT|INTERRES
     7    4    5 1    
     8    4   75 1    
     9    5    6 1    
    10    5   35 1    
    11    5   76 1    
    12    6    7 1    
    13    6   77 1    
    14    6   78 1    
    15    7    8 1    
    16    8    9 1    
    17    8   79 1    
    18    8   80 1    
    19    9   10 ar   
    20    9   14 ar   
    21   10   11 ar   
    22   10   81 1    
    23   11   12 ar   
    24   11   71 1    
    25   12   13 ar   
    26   12   82 1    
    27   13   14 ar   
    28   13   15 1    
    29   14   83 1    
    30   15   16 1    
    31   15   84 1    
    32   15   85 1    
    33   16   17 1    
    34   17   18 1    
    35   17   86 1    
    36   17   87 1    
    37   18   19 1    
    38   18   37 1    
    39   18   88 1    
    40   19   20 am   BACKBONE|DICT|INTERRES
    41   19   89 1    
    42   20   21 2    
    43   20   22 1    
    44   22   23 1    
    45   22   24 1    
    46   22   90 1    
    47   23   91 1    
    48   23   92 1    
    49   23   93 1    
    50   24   25 am   BACKBONE|DICT|INTERRES
    51   24   94 1    
    52   25   26 2    
    53   25   27 1    
    54   27   28 1    
    55   27   29 1    
    56   27   95 1    
    57   28   96 1    
    58   28   97 1    
    59   28   98 1    
    60   29   30 am   BACKBONE|DICT|INTERRES
    61   29   99 1    
    62   30   31 2    
    63   30   32 1    
    64   32   33 1    
    65   32   34 1    
    66   32  100 1    
    67   33  101 1    
    68   33  102 1    
    69   33  103 1    
    70   34   35 am   BACKBONE|DICT|INTERRES
    71   34  104 1    
    72   35   36 2    
    73   37   38 2    
    74   37   39 am   BACKBONE|DICT|INTERRES
    75   39   40 1    
    76   39  105 1    
    77   40   41 1    
    78   40   42 1    
    79   40  106 1    
    80   41  107 1    
    81   41  108 1    
    82   41  109 1    
    83   42   43 2    
    84   42   44 am   BACKBONE|DICT|INTERRES
    85   44   45 1    
    86   44  110 1    
    87   45   46 1    
    88   45   47 1    
    89   45  111 1    
    90   46  112 1    
    91   46  113 1    
    92   46  114 1    
    93   47   48 2    
    94   47   49 am   BACKBONE|DICT|INTERRES
    95   49   50 1    
    96   49  115 1    
    97   50   51 1    
    98   50   52 1    
    99   50  116 1    
   100   51  117 1    
   101   51  118 1    
   102   51  119 1    
   103   52   53 2    
   104   52   54 am   BACKBONE|DICT|INTERRES
   105   54   55 1    
   106   54  120 1    
   107   55   56 1    
   108   55   57 1    
   109   55  121 1    
   110   56  122 1    
   111   56  123 1    
   112   56  124 1    
   113   57   58 2    
   114   57   59 am   BACKBONE|DICT|INTERRES
   115   59   60 1    
   116   59  125 1    
   117   60   61 1    
   118   60   62 1    
   119   60  126 1    
   120   61  127 1    
   121   61  128 1    
   122   61  129 1    
   123   62   63 2    
   124   62   64 am   BACKBONE|DICT|INTERRES
   125   64   65 1    
   126   64  130 1    
   127   65   66 1    
   128   65   69 1    
   129   65  131 1    
   130   66   67 am   BACKBONE|DICT|INTERRES
   131   66   68 2    
   132   67  132 1    
   133   67  133 1    
   134   69   70 1    
   135   69  134 1    
   136   69  135 1    
   137   70   71 1    
   138   71  136 1    
   139   71  137 1    
@<TRIPOS>SUBSTRUCTURE
     1 UNK         1 GROUP             0       ****    0 ROOT    
