@<TRIPOS>MOLECULE
3R136
137   139    1
SMALL
USER_CHARGES


@<TRIPOS>ATOM
      1 CA         30.8147   26.2187   -4.4702 C.3       0 UNK        -0.1979 
      2 C          29.6851   26.8581   -3.6768 C.2       0 UNK         0.4864 
      3 O          29.1161   27.8566   -4.1188 O.2       0 UNK        -0.5359 
      4 N          29.3573   26.2902   -2.5082 N.am      1 UNK        -0.4318 
      5 CA         28.3289   26.7996   -1.5912 C.3       1 UNK         0.0824 
      6 C6         28.5565   26.3084   -0.1411 C.3       12 UNK        -0.0944 
      7 S7         30.0878   26.9807    0.5768 S.3       12 UNK        -0.2672 
      8 C8         31.2035   25.5461    0.6103 C.3       12 UNK         0.0333 
      9 C9         31.7046   25.3372    2.0266 C.ar      12 UNK        -0.0807 
     10 C10        32.7867   26.0817    2.5029 C.ar      12 UNK        -0.0894 
     11 C11        33.2211   25.9515    3.8252 C.ar      12 UNK        -0.0804 
     12 C12        32.5412   25.0664    4.6745 C.ar      12 UNK        -0.0824 
     13 C13        31.4472   24.3283    4.2115 C.ar      12 UNK        -0.0762 
     14 C14        31.0538   24.4422    2.8770 C.ar      12 UNK        -0.0782 
     15 C15        30.6699   23.4400    5.1698 C.3       12 UNK         0.0230 
     16 S16        29.5196   24.4302    6.1785 S.3       12 UNK        -0.2608 
     17 C17        28.0327   24.5408    5.1164 C.3       12 UNK        -0.0989 
     18 CA         27.9906   25.6821    4.0596 C.3       5 UNK         0.0716 
     19 N          26.6597   25.8251    3.4791 N.am      5 UNK        -0.4135 
     20 C          26.2109   25.1275    2.4324 C.2       4 UNK         0.5031 
     21 O          26.8636   24.2278    1.8955 O.2       4 UNK        -0.5229 
     22 CA         24.8240   25.5183    1.8807 C.3       4 UNK         0.0329 
     23 CB         24.6981   27.0376    1.6546 C.3       4 UNK        -0.2001 
     24 N          24.5682   24.8220    0.6163 N.am      4 UNK        -0.4303 
     25 C          24.0676   23.5821    0.5236 C.2       3 UNK         0.5044 
     26 O          23.5747   22.9802    1.4798 O.2       3 UNK        -0.5152 
     27 CA         24.1755   22.8497   -0.8302 C.3       3 UNK         0.0319 
     28 CB         22.8121   22.3023   -1.3052 C.3       3 UNK        -0.2001 
     29 N          24.8727   23.5926   -1.8925 N.am      3 UNK        -0.4354 
     30 C          24.4263   24.6367   -2.6058 C.2       2 UNK         0.4964 
     31 O          23.3198   25.1567   -2.4549 O.2       2 UNK        -0.5047 
     32 CA         25.4214   25.2040   -3.6392 C.3       2 UNK         0.0288 
     33 CB         24.8316   26.3667   -4.4670 C.3       2 UNK        -0.2113 
     34 N          26.7026   25.6018   -3.0344 N.am      2 UNK        -0.4145 
     35 C          26.8843   26.4957   -2.0471 C.2       1 UNK         0.5006 
     36 O          25.9592   27.0772   -1.4805 O.2       1 UNK        -0.5103 
     37 C          28.4168   27.0690    4.5655 C.2       5 UNK         0.5055 
     38 O          27.5590   27.8462    4.9939 O.2       5 UNK        -0.5220 
     39 N          29.7254   27.3507    4.4741 N.am      6 UNK        -0.4450 
     40 CA         30.3972   28.5993    4.8556 C.3       6 UNK         0.0367 
     41 CB         30.2894   28.8369    6.3769 C.3       6 UNK        -0.1929 
     42 C          29.9526   29.8273    4.0324 C.2       6 UNK         0.5070 
     43 O          29.9998   30.9506    4.5369 O.2       6 UNK        -0.5237 
     44 N          29.5263   29.5993    2.7824 N.am      7 UNK        -0.4739 
     45 CA         29.1097   30.6504    1.8513 C.3       7 UNK         0.0276 
     46 CB         27.9096   30.1587    1.0241 C.3       7 UNK        -0.1927 
     47 C          30.2659   31.0852    0.9375 C.2       7 UNK         0.5013 
     48 O          30.4455   32.2832    0.7177 O.2       7 UNK        -0.5193 
     49 N          31.0250   30.1092    0.4191 N.am      8 UNK        -0.4253 
     50 CA         32.1322   30.3219   -0.5177 C.3       8 UNK         0.0242 
     51 CB         32.3379   29.0433   -1.3483 C.3       8 UNK        -0.2000 
     52 C          33.4491   30.7300    0.1652 C.2       8 UNK         0.4948 
     53 O          34.3251   31.2735   -0.5095 O.2       8 UNK        -0.5275 
     54 N          33.5814   30.4594    1.4685 N.am      9 UNK        -0.4246 
     55 CA         34.7485   30.7739    2.2867 C.3       9 UNK         0.0261 
     56 CB         35.8314   29.6946    2.1030 C.3       9 UNK        -0.1959 
     57 C          34.3036   30.8863    3.7475 C.2       9 UNK         0.5033 
     58 O          33.2692   30.3237    4.1164 O.2       9 UNK        -0.5390 
     59 N          35.0911   31.6051    4.5550 N.am      10 UNK        -0.4215 
     60 CA         34.7961   31.9441    5.9494 C.3       10 UNK         0.0240 
     61 CB         35.6021   33.2009    6.3320 C.3       10 UNK        -0.1982 
     62 C          35.0223   30.7747    6.9304 C.2       10 UNK         0.4970 
     63 O          35.8361   30.8924    7.8487 O.2       10 UNK        -0.4916 
     64 N          34.2808   29.6778    6.7384 N.am      11 UNK        -0.4279 
     65 CA         34.1937   28.5541    7.6892 C.3       11 UNK         0.1003 
     66 C          33.3226   28.8501    8.9480 C.2       11 UNK         0.5709 
     67 N          32.6019   29.9635    9.0233 N.am      11 UNK        -0.7358 
     68 O          33.3125   28.0565    9.8860 O.2       11 UNK        -0.4999 
     69 C69        33.7461   27.2413    6.9946 C.3       12 UNK        -0.0954 
     70 S70        35.0542   26.5206    5.9500 S.3       12 UNK        -0.2268 
     71 C71        34.4060   26.8124    4.2709 C.3       12 UNK         0.0203 
     72 H72        30.4571   25.9116   -5.4526 H         1 UNK         0.0888 
     73 H73        31.6244   26.9344   -4.6102 H         1 UNK         0.0888 
     74 H74        31.2217   25.3417   -3.9673 H         1 UNK         0.0888 
     75 H75        29.8647   25.4767   -2.1914 H         1 UNK         0.3017 
     76 H76        28.4077   27.8892   -1.5850 H         1 UNK         0.0873 
     77 H77        28.5426   25.2189   -0.0842 H         1 UNK         0.0745 
     78 H78        27.7491   26.6528    0.5052 H         1 UNK         0.0745 
     79 H79        30.7069   24.6465    0.2453 H         1 UNK         0.0705 
     80 H80        32.0421   25.7279   -0.0635 H         1 UNK         0.0705 
     81 H81        33.2840   26.7795    1.8422 H         1 UNK         0.1334 
     82 H82        32.8362   24.9554    5.7075 H         1 UNK         0.1417 
     83 H83        30.2114   23.8694    2.5114 H         1 UNK         0.1562 
     84 H84        31.3673   22.9268    5.8338 H         1 UNK         0.0748 
     85 H85        30.1290   22.6582    4.6344 H         1 UNK         0.0748 
     86 H86        27.1829   24.6505    5.7927 H         1 UNK         0.0940 
     87 H87        27.8821   23.5802    4.6214 H         1 UNK         0.0940 
     88 H88        28.6706   25.4338    3.2471 H         1 UNK         0.0703 
     89 H89        26.1191   26.5906    3.8625 H         1 UNK         0.3081 
     90 H90        24.0752   25.2205    2.6175 H         1 UNK         0.0719 
     91 H91        24.6777   27.5803    2.6001 H         1 UNK         0.0809 
     92 H92        25.5277   27.4358    1.0710 H         1 UNK         0.0809 
     93 H93        23.7754   27.2846    1.1289 H         1 UNK         0.0809 
     94 H94        24.9540   25.2477   -0.2153 H         1 UNK         0.2990 
     95 H95        24.8102   21.9845   -0.6329 H         1 UNK         0.0690 
     96 H96        22.9055   21.7636   -2.2481 H         1 UNK         0.0788 
     97 H97        22.0770   23.0959   -1.4407 H         1 UNK         0.0788 
     98 H98        22.3977   21.6052   -0.5757 H         1 UNK         0.0788 
     99 H99        25.8120   23.2707   -2.0835 H         1 UNK         0.2993 
    100 H100       25.6401   24.3900   -4.3326 H         1 UNK         0.0949 
    101 H101       24.5640   27.2181   -3.8400 H         1 UNK         0.0767 
    102 H102       25.5391   26.7154   -5.2194 H         1 UNK         0.0767 
    103 H103       23.9282   26.0532   -4.9919 H         1 UNK         0.0767 
    104 H104       27.5276   25.1693   -3.4254 H         1 UNK         0.3013 
    105 H105       30.3383   26.6283    4.1166 H         1 UNK         0.3121 
    106 H106       31.4512   28.4492    4.6203 H         1 UNK         0.0774 
    107 H107       30.9392   29.6549    6.6874 H         1 UNK         0.0815 
    108 H108       29.2739   29.1015    6.6728 H         1 UNK         0.0815 
    109 H109       30.5811   27.9534    6.9442 H         1 UNK         0.0815 
    110 H110       29.5106   28.6473    2.4443 H         1 UNK         0.2987 
    111 H111       28.7829   31.5308    2.4098 H         1 UNK         0.0949 
    112 H112       27.0713   29.8878    1.6664 H         1 UNK         0.0806 
    113 H113       27.5590   30.9387    0.3468 H         1 UNK         0.0806 
    114 H114       28.1571   29.2899    0.4160 H         1 UNK         0.0806 
    115 H115       30.7951   29.1475    0.6334 H         1 UNK         0.3010 
    116 H116       31.8573   31.1276   -1.2024 H         1 UNK         0.0829 
    117 H117       32.6474   28.2025   -0.7263 H         1 UNK         0.0813 
    118 H118       33.1104   29.1892   -2.1047 H         1 UNK         0.0813 
    119 H119       31.4247   28.7579   -1.8709 H         1 UNK         0.0813 
    120 H120       32.8012   30.0748    1.9863 H         1 UNK         0.3038 
    121 H121       35.1468   31.7444    1.9820 H         1 UNK         0.0769 
    122 H122       36.2273   29.7044    1.0873 H         1 UNK         0.0811 
    123 H123       35.4406   28.6960    2.2932 H         1 UNK         0.0811 
    124 H124       36.6735   29.8540    2.7779 H         1 UNK         0.0811 
    125 H125       35.9460   31.9884    4.1770 H         1 UNK         0.3204 
    126 H126       33.7377   32.2064    6.0170 H         1 UNK         0.0748 
    127 H127       35.3741   33.5181    7.3508 H         1 UNK         0.0771 
    128 H128       36.6772   33.0247    6.2777 H         1 UNK         0.0771 
    129 H129       35.3655   34.0394    5.6764 H         1 UNK         0.0771 
    130 H130       33.6660   29.6568    5.9309 H         1 UNK         0.2980 
    131 H131       35.1967   28.3817    8.0844 H         1 UNK         0.0545 
    132 H132       32.6049   30.6322    8.2717 H         1 UNK         0.3459 
    133 H133       32.0530   30.1365    9.8505 H         1 UNK         0.3459 
    134 H134       32.8440   27.4065    6.4063 H         1 UNK         0.0616 
    135 H135       33.4891   26.4756    7.7291 H         1 UNK         0.0616 
    136 H136       34.1301   27.8619    4.1859 H         1 UNK         0.0634 
    137 H137       35.2292   26.6491    3.5743 H         1 UNK         0.0634 
@<TRIPOS>BOND
     1    1    2 1    
     2    1   72 1    
     3    1   73 1    
     4    1   74 1    
     5    2    3 2    
     6    2    4 am   BACKBONE|DICT|INTERRES
     7    4    5 1    
     8    4   75 1    
     9    5    6 1    
    10    5   35 1    
    11    5   76 1    
    12    6    7 1    
    13    6   77 1    
    14    6   78 1    
    15    7    8 1    
    16    8    9 1    
    17    8   79 1    
    18    8   80 1    
    19    9   10 ar   
    20    9   14 ar   
    21   10   11 ar   
    22   10   81 1    
    23   11   12 ar   
    24   11   71 1    
    25   12   13 ar   
    26   12   82 1    
    27   13   14 ar   
    28   13   15 1    
    29   14   83 1    
    30   15   16 1    
    31   15   84 1    
    32   15   85 1    
    33   16   17 1    
    34   17   18 1    
    35   17   86 1    
    36   17   87 1    
    37   18   19 1    
    38   18   37 1    
    39   18   88 1    
    40   19   20 am   BACKBONE|DICT|INTERRES
    41   19   89 1    
    42   20   21 2    
    43   20   22 1    
    44   22   23 1    
    45   22   24 1    
    46   22   90 1    
    47   23   91 1    
    48   23   92 1    
    49   23   93 1    
    50   24   25 am   BACKBONE|DICT|INTERRES
    51   24   94 1    
    52   25   26 2    
    53   25   27 1    
    54   27   28 1    
    55   27   29 1    
    56   27   95 1    
    57   28   96 1    
    58   28   97 1    
    59   28   98 1    
    60   29   30 am   BACKBONE|DICT|INTERRES
    61   29   99 1    
    62   30   31 2    
    63   30   32 1    
    64   32   33 1    
    65   32   34 1    
    66   32  100 1    
    67   33  101 1    
    68   33  102 1    
    69   33  103 1    
    70   34   35 am   BACKBONE|DICT|INTERRES
    71   34  104 1    
    72   35   36 2    
    73   37   38 2    
    74   37   39 am   BACKBONE|DICT|INTERRES
    75   39   40 1    
    76   39  105 1    
    77   40   41 1    
    78   40   42 1    
    79   40  106 1    
    80   41  107 1    
    81   41  108 1    
    82   41  109 1    
    83   42   43 2    
    84   42   44 am   BACKBONE|DICT|INTERRES
    85   44   45 1    
    86   44  110 1    
    87   45   46 1    
    88   45   47 1    
    89   45  111 1    
    90   46  112 1    
    91   46  113 1    
    92   46  114 1    
    93   47   48 2    
    94   47   49 am   BACKBONE|DICT|INTERRES
    95   49   50 1    
    96   49  115 1    
    97   50   51 1    
    98   50   52 1    
    99   50  116 1    
   100   51  117 1    
   101   51  118 1    
   102   51  119 1    
   103   52   53 2    
   104   52   54 am   BACKBONE|DICT|INTERRES
   105   54   55 1    
   106   54  120 1    
   107   55   56 1    
   108   55   57 1    
   109   55  121 1    
   110   56  122 1    
   111   56  123 1    
   112   56  124 1    
   113   57   58 2    
   114   57   59 am   BACKBONE|DICT|INTERRES
   115   59   60 1    
   116   59  125 1    
   117   60   61 1    
   118   60   62 1    
   119   60  126 1    
   120   61  127 1    
   121   61  128 1    
   122   61  129 1    
   123   62   63 2    
   124   62   64 am   BACKBONE|DICT|INTERRES
   125   64   65 1    
   126   64  130 1    
   127   65   66 1    
   128   65   69 1    
   129   65  131 1    
   130   66   67 am   BACKBONE|DICT|INTERRES
   131   66   68 2    
   132   67  132 1    
   133   67  133 1    
   134   69   70 1    
   135   69  134 1    
   136   69  135 1    
   137   70   71 1    
   138   71  136 1    
   139   71  137 1    
@<TRIPOS>SUBSTRUCTURE
     1 UNK         1 GROUP             0       ****    0 ROOT    
