@<TRIPOS>MOLECULE
3R136
137   139    1
SMALL
USER_CHARGES


@<TRIPOS>ATOM
      1 CA         27.9942   19.9036    2.0610 C.3       0 UNK        -0.1979 
      2 C          28.4132   20.3389    0.6643 C.2       0 UNK         0.4864 
      3 O          28.2857   19.5629   -0.2843 O.2       0 UNK        -0.5359 
      4 N          28.9188   21.5713    0.5345 N.am      1 UNK        -0.4318 
      5 CA         29.2890   22.2012   -0.7353 C.3       1 UNK         0.0824 
      6 C6         30.2720   23.3866   -0.5301 C.3       12 UNK        -0.0944 
      7 S7         29.7460   24.6103    0.7258 S.3       12 UNK        -0.2672 
      8 C8         30.9067   24.1936    2.0659 C.3       12 UNK         0.0333 
      9 C9         30.5859   24.9500    3.3435 C.ar      12 UNK        -0.0807 
     10 C10        31.4271   25.9714    3.7951 C.ar      12 UNK        -0.0894 
     11 C11        31.1450   26.6442    4.9877 C.ar      12 UNK        -0.0804 
     12 C12        29.9947   26.3144    5.7110 C.ar      12 UNK        -0.0824 
     13 C13        29.1439   25.2977    5.2662 C.ar      12 UNK        -0.0762 
     14 C14        29.4577   24.6050    4.0927 C.ar      12 UNK        -0.0782 
     15 C15        27.8865   24.9479    6.0519 C.3       12 UNK         0.0230 
     16 S16        26.3723   25.1111    5.0486 S.3       12 UNK        -0.2608 
     17 C17        26.4034   26.8818    4.5973 C.3       12 UNK        -0.0989 
     18 CA         27.0229   27.1424    3.1937 C.3       5 UNK         0.0716 
     19 N          26.4454   26.3449    2.1050 N.am      5 UNK        -0.4135 
     20 C          25.1584   26.2704    1.7427 C.2       4 UNK         0.5031 
     21 O          24.2485   26.9021    2.2825 O.2       4 UNK        -0.5229 
     22 CA         24.8686   25.3601    0.5321 C.3       4 UNK         0.0329 
     23 CB         23.4113   25.4632    0.0346 C.3       4 UNK        -0.2001 
     24 N          25.8090   25.5801   -0.5767 N.am      4 UNK        -0.4303 
     25 C          26.0461   26.7445   -1.2058 C.2       3 UNK         0.5044 
     26 O          25.4985   27.8009   -0.8967 O.2       3 UNK        -0.5152 
     27 CA         27.0882   26.7688   -2.3415 C.3       3 UNK         0.0319 
     28 CB         28.3634   27.4927   -1.8759 C.3       3 UNK        -0.2001 
     29 N          27.4526   25.4418   -2.8370 N.am      3 UNK        -0.4354 
     30 C          26.6531   24.6321   -3.5468 C.2       2 UNK         0.4964 
     31 O          25.5467   24.9642   -3.9724 O.2       2 UNK        -0.5047 
     32 CA         27.1575   23.1968   -3.7976 C.3       2 UNK         0.0288 
     33 CB         27.6864   23.0567   -5.2346 C.3       2 UNK        -0.2113 
     34 N          28.1933   22.7442   -2.8578 N.am      2 UNK        -0.4145 
     35 C          28.0397   22.6317   -1.5294 C.2       1 UNK         0.5006 
     36 O          26.9929   22.9123   -0.9373 O.2       1 UNK        -0.5103 
     37 C          27.1444   28.6499    2.8817 C.2       5 UNK         0.5055 
     38 O          27.7075   29.3740    3.7051 O.2       5 UNK        -0.5220 
     39 N          26.7230   29.1085    1.6890 N.am      6 UNK        -0.4450 
     40 CA         26.9245   30.4900    1.2215 C.3       6 UNK         0.0367 
     41 CB         26.0447   30.7685   -0.0072 C.3       6 UNK        -0.1929 
     42 C          28.3982   30.8330    0.9219 C.2       6 UNK         0.5070 
     43 O          28.7143   32.0063    0.7257 O.2       6 UNK        -0.5237 
     44 N          29.2753   29.8166    0.9222 N.am      7 UNK        -0.4739 
     45 CA         30.7339   29.9437    0.8874 C.3       7 UNK         0.0276 
     46 CB         31.3551   28.5420    0.7767 C.3       7 UNK        -0.1927 
     47 C          31.3055   30.7028    2.1020 C.2       7 UNK         0.5013 
     48 O          32.3460   31.3436    1.9533 O.2       7 UNK        -0.5193 
     49 N          30.5972   30.6386    3.2454 N.am      8 UNK        -0.4253 
     50 CA         30.7227   31.4459    4.4676 C.3       8 UNK         0.0242 
     51 CB         29.8647   32.7199    4.3201 C.3       8 UNK        -0.2000 
     52 C          32.1674   31.7474    4.9062 C.2       8 UNK         0.4948 
     53 O          32.7624   30.9448    5.6253 O.2       8 UNK        -0.5275 
     54 N          32.7129   32.8799    4.4364 N.am      9 UNK        -0.4246 
     55 CA         34.0816   33.3552    4.6653 C.3       9 UNK         0.0261 
     56 CB         34.2765   34.6946    3.9369 C.3       9 UNK        -0.1959 
     57 C          35.1910   32.3625    4.2679 C.2       9 UNK         0.5033 
     58 O          36.2927   32.4607    4.8099 O.2       9 UNK        -0.5390 
     59 N          34.8847   31.3964    3.3875 N.am      10 UNK        -0.4215 
     60 CA         35.7400   30.2496    3.0591 C.3       10 UNK         0.0240 
     61 CB         35.0409   29.3841    1.9995 C.3       10 UNK        -0.1982 
     62 C          36.1217   29.3825    4.2767 C.2       10 UNK         0.4970 
     63 O          37.1881   28.7666    4.2569 O.2       10 UNK        -0.4916 
     64 N          35.2690   29.3652    5.3105 N.am      11 UNK        -0.4279 
     65 CA         35.5450   28.7410    6.6122 C.3       11 UNK         0.1003 
     66 C          36.4227   29.6128    7.5603 C.2       11 UNK         0.5709 
     67 N          36.8086   30.8333    7.2051 N.am      11 UNK        -0.7358 
     68 O          36.7812   29.1618    8.6459 O.2       11 UNK        -0.4999 
     69 C69        34.2342   28.2860    7.3056 C.3       12 UNK        -0.0954 
     70 S70        33.4470   26.8858    6.4462 S.3       12 UNK        -0.2268 
     71 C71        32.1063   27.6939    5.5207 C.3       12 UNK         0.0203 
     72 H72        28.1770   20.6809    2.8028 H         1 UNK         0.0888 
     73 H73        26.9311   19.6648    2.0756 H         1 UNK         0.0888 
     74 H74        28.5482   19.0138    2.3590 H         1 UNK         0.0888 
     75 H75        28.9542   22.1834    1.3358 H         1 UNK         0.3017 
     76 H76        29.8043   21.4480   -1.3361 H         1 UNK         0.0873 
     77 H77        30.4499   23.9153   -1.4684 H         1 UNK         0.0745 
     78 H78        31.2481   22.9887   -0.2484 H         1 UNK         0.0745 
     79 H79        30.8691   23.1219    2.2668 H         1 UNK         0.0705 
     80 H80        31.9240   24.4098    1.7355 H         1 UNK         0.0705 
     81 H81        32.3173   26.2257    3.2359 H         1 UNK         0.1334 
     82 H82        29.7726   26.8393    6.6302 H         1 UNK         0.1417 
     83 H83        28.8057   23.8135    3.7491 H         1 UNK         0.1562 
     84 H84        27.7919   25.5739    6.9406 H         1 UNK         0.0748 
     85 H85        27.9656   23.9196    6.4071 H         1 UNK         0.0748 
     86 H86        26.9534   27.4270    5.3669 H         1 UNK         0.0940 
     87 H87        25.3818   27.2624    4.6414 H         1 UNK         0.0940 
     88 H88        28.0602   26.8140    3.2381 H         1 UNK         0.0703 
     89 H89        27.1087   25.7884    1.5839 H         1 UNK         0.3081 
     90 H90        25.0295   24.3361    0.8731 H         1 UNK         0.0719 
     91 H91        23.2302   24.7877   -0.8015 H         1 UNK         0.0809 
     92 H92        23.1649   26.4742   -0.2918 H         1 UNK         0.0809 
     93 H93        22.7088   25.1964    0.8251 H         1 UNK         0.0809 
     94 H94        26.3160   24.7518   -0.8771 H         1 UNK         0.2990 
     95 H95        26.6542   27.3340   -3.1690 H         1 UNK         0.0690 
     96 H96        29.0958   27.5658   -2.6800 H         1 UNK         0.0788 
     97 H97        28.8355   26.9807   -1.0369 H         1 UNK         0.0788 
     98 H98        28.1409   28.5106   -1.5537 H         1 UNK         0.0788 
     99 H99        28.3510   25.0855   -2.5477 H         1 UNK         0.2993 
    100 H100       26.2974   22.5337   -3.6812 H         1 UNK         0.0949 
    101 H101       26.9293   23.3566   -5.9609 H         1 UNK         0.0767 
    102 H102       28.5653   23.6801   -5.4042 H         1 UNK         0.0767 
    103 H103       27.9561   22.0247   -5.4604 H         1 UNK         0.0767 
    104 H104       29.0859   22.5017   -3.2645 H         1 UNK         0.3013 
    105 H105       26.2543   28.4793    1.0465 H         1 UNK         0.3121 
    106 H106       26.5988   31.1580    2.0219 H         1 UNK         0.0774 
    107 H107       26.0530   31.8304   -0.2559 H         1 UNK         0.0815 
    108 H108       26.3978   30.2321   -0.8879 H         1 UNK         0.0815 
    109 H109       25.0068   30.4853    0.1688 H         1 UNK         0.0815 
    110 H110       28.9090   28.8884    1.0657 H         1 UNK         0.2987 
    111 H111       30.9970   30.5127   -0.0069 H         1 UNK         0.0949 
    112 H112       31.1259   27.9273    1.6475 H         1 UNK         0.0806 
    113 H113       30.9966   28.0157   -0.1080 H         1 UNK         0.0806 
    114 H114       32.4402   28.6018    0.6919 H         1 UNK         0.0806 
    115 H115       29.7728   30.0497    3.2308 H         1 UNK         0.3010 
    116 H116       30.2841   30.8503    5.2700 H         1 UNK         0.0829 
    117 H117       28.8088   32.4651    4.2237 H         1 UNK         0.0813 
    118 H118       29.9587   33.3672    5.1934 H         1 UNK         0.0813 
    119 H119       30.1381   33.3021    3.4393 H         1 UNK         0.0813 
    120 H120       32.1484   33.4392    3.8137 H         1 UNK         0.3038 
    121 H121       34.1831   33.5300    5.7382 H         1 UNK         0.0769 
    122 H122       35.2778   35.0919    4.1100 H         1 UNK         0.0811 
    123 H123       33.5683   35.4456    4.2876 H         1 UNK         0.0811 
    124 H124       34.1499   34.5884    2.8587 H         1 UNK         0.0811 
    125 H125       33.9595   31.4114    2.9616 H         1 UNK         0.3204 
    126 H126       36.6644   30.6431    2.6319 H         1 UNK         0.0748 
    127 H127       35.6791   28.5568    1.6861 H         1 UNK         0.0771 
    128 H128       34.1157   28.9547    2.3857 H         1 UNK         0.0771 
    129 H129       34.7982   29.9628    1.1079 H         1 UNK         0.0771 
    130 H130       34.4187   29.9188    5.2660 H         1 UNK         0.2980 
    131 H131       36.1402   27.8436    6.4325 H         1 UNK         0.0545 
    132 H132       36.5541   31.2355    6.3091 H         1 UNK         0.3459 
    133 H133       37.3820   31.3644    7.8405 H         1 UNK         0.3459 
    134 H134       33.5327   29.1156    7.4033 H         1 UNK         0.0616 
    135 H135       34.4337   27.9437    8.3226 H         1 UNK         0.0616 
    136 H136       31.5787   28.3960    6.1682 H         1 UNK         0.0634 
    137 H137       32.5255   28.2774    4.6996 H         1 UNK         0.0634 
@<TRIPOS>BOND
     1    1    2 1    
     2    1   72 1    
     3    1   73 1    
     4    1   74 1    
     5    2    3 2    
     6    2    4 am   BACKBONE|DICT|INTERRES
     7    4    5 1    
     8    4   75 1    
     9    5    6 1    
    10    5   35 1    
    11    5   76 1    
    12    6    7 1    
    13    6   77 1    
    14    6   78 1    
    15    7    8 1    
    16    8    9 1    
    17    8   79 1    
    18    8   80 1    
    19    9   10 ar   
    20    9   14 ar   
    21   10   11 ar   
    22   10   81 1    
    23   11   12 ar   
    24   11   71 1    
    25   12   13 ar   
    26   12   82 1    
    27   13   14 ar   
    28   13   15 1    
    29   14   83 1    
    30   15   16 1    
    31   15   84 1    
    32   15   85 1    
    33   16   17 1    
    34   17   18 1    
    35   17   86 1    
    36   17   87 1    
    37   18   19 1    
    38   18   37 1    
    39   18   88 1    
    40   19   20 am   BACKBONE|DICT|INTERRES
    41   19   89 1    
    42   20   21 2    
    43   20   22 1    
    44   22   23 1    
    45   22   24 1    
    46   22   90 1    
    47   23   91 1    
    48   23   92 1    
    49   23   93 1    
    50   24   25 am   BACKBONE|DICT|INTERRES
    51   24   94 1    
    52   25   26 2    
    53   25   27 1    
    54   27   28 1    
    55   27   29 1    
    56   27   95 1    
    57   28   96 1    
    58   28   97 1    
    59   28   98 1    
    60   29   30 am   BACKBONE|DICT|INTERRES
    61   29   99 1    
    62   30   31 2    
    63   30   32 1    
    64   32   33 1    
    65   32   34 1    
    66   32  100 1    
    67   33  101 1    
    68   33  102 1    
    69   33  103 1    
    70   34   35 am   BACKBONE|DICT|INTERRES
    71   34  104 1    
    72   35   36 2    
    73   37   38 2    
    74   37   39 am   BACKBONE|DICT|INTERRES
    75   39   40 1    
    76   39  105 1    
    77   40   41 1    
    78   40   42 1    
    79   40  106 1    
    80   41  107 1    
    81   41  108 1    
    82   41  109 1    
    83   42   43 2    
    84   42   44 am   BACKBONE|DICT|INTERRES
    85   44   45 1    
    86   44  110 1    
    87   45   46 1    
    88   45   47 1    
    89   45  111 1    
    90   46  112 1    
    91   46  113 1    
    92   46  114 1    
    93   47   48 2    
    94   47   49 am   BACKBONE|DICT|INTERRES
    95   49   50 1    
    96   49  115 1    
    97   50   51 1    
    98   50   52 1    
    99   50  116 1    
   100   51  117 1    
   101   51  118 1    
   102   51  119 1    
   103   52   53 2    
   104   52   54 am   BACKBONE|DICT|INTERRES
   105   54   55 1    
   106   54  120 1    
   107   55   56 1    
   108   55   57 1    
   109   55  121 1    
   110   56  122 1    
   111   56  123 1    
   112   56  124 1    
   113   57   58 2    
   114   57   59 am   BACKBONE|DICT|INTERRES
   115   59   60 1    
   116   59  125 1    
   117   60   61 1    
   118   60   62 1    
   119   60  126 1    
   120   61  127 1    
   121   61  128 1    
   122   61  129 1    
   123   62   63 2    
   124   62   64 am   BACKBONE|DICT|INTERRES
   125   64   65 1    
   126   64  130 1    
   127   65   66 1    
   128   65   69 1    
   129   65  131 1    
   130   66   67 am   BACKBONE|DICT|INTERRES
   131   66   68 2    
   132   67  132 1    
   133   67  133 1    
   134   69   70 1    
   135   69  134 1    
   136   69  135 1    
   137   70   71 1    
   138   71  136 1    
   139   71  137 1    
@<TRIPOS>SUBSTRUCTURE
     1 UNK         1 GROUP             0       ****    0 ROOT    
