@<TRIPOS>MOLECULE
3R136
137   139    1
SMALL
USER_CHARGES


@<TRIPOS>ATOM
      1 CA         26.9694   20.3396   -1.0881 C.3       0 UNK        -0.1979 
      2 C          27.8956   21.1072   -0.1567 C.2       0 UNK         0.4864 
      3 O          27.4582   22.0607    0.4865 O.2       0 UNK        -0.5359 
      4 N          29.1729   20.7052   -0.0896 N.am      1 UNK        -0.4318 
      5 CA         30.2555   21.2806    0.7227 C.3       1 UNK         0.0824 
      6 C6         29.9414   21.3076    2.2430 C.3       12 UNK        -0.0944 
      7 S7         31.4483   21.4169    3.2669 S.3       12 UNK        -0.2672 
      8 C8         30.7987   22.1071    4.8227 C.3       12 UNK         0.0333 
      9 C9         30.2337   23.5106    4.6490 C.ar      12 UNK        -0.0807 
     10 C10        31.0839   24.5859    4.3757 C.ar      12 UNK        -0.0894 
     11 C11        30.5689   25.8765    4.2253 C.ar      12 UNK        -0.0804 
     12 C12        29.1906   26.0880    4.3453 C.ar      12 UNK        -0.0824 
     13 C13        28.3297   25.0202    4.6159 C.ar      12 UNK        -0.0762 
     14 C14        28.8594   23.7357    4.7728 C.ar      12 UNK        -0.0782 
     15 C15        26.8294   25.2416    4.7549 C.3       12 UNK         0.0230 
     16 S16        25.9254   24.5373    3.3386 S.3       12 UNK        -0.2608 
     17 C17        25.2596   26.0181    2.5092 C.3       12 UNK        -0.0989 
     18 CA         26.3225   26.7452    1.6279 C.3       5 UNK         0.0716 
     19 N          25.9112   26.8641    0.2254 N.am      5 UNK        -0.4135 
     20 C          24.9548   27.6683   -0.2672 C.2       4 UNK         0.5031 
     21 O          24.2142   28.3549    0.4387 O.2       4 UNK        -0.5229 
     22 CA         24.7850   27.7189   -1.8036 C.3       4 UNK         0.0329 
     23 CB         24.4057   29.1315   -2.2982 C.3       4 UNK        -0.2001 
     24 N          25.9339   27.2005   -2.5611 N.am      4 UNK        -0.4303 
     25 C          27.1960   27.6529   -2.5304 C.2       3 UNK         0.5044 
     26 O          27.5773   28.6167   -1.8643 O.2       3 UNK        -0.5152 
     27 CA         28.2284   26.8266   -3.3132 C.3       3 UNK         0.0319 
     28 CB         28.9585   27.6971   -4.3492 C.3       3 UNK        -0.2001 
     29 N          29.2104   26.2161   -2.4126 N.am      3 UNK        -0.4354 
     30 C          28.9241   25.3786   -1.4058 C.2       2 UNK         0.4964 
     31 O          27.7842   25.0022   -1.1210 O.2       2 UNK        -0.5047 
     32 CA         30.1056   24.9278   -0.5456 C.3       2 UNK         0.0288 
     33 CB         30.3449   25.9130    0.6094 C.3       2 UNK        -0.2113 
     34 N          29.8362   23.5990   -0.0061 N.am      2 UNK        -0.4145 
     35 C          30.7511   22.6442    0.1905 C.2       1 UNK         0.5006 
     36 O          31.9493   22.7912   -0.0599 O.2       1 UNK        -0.5103 
     37 C          26.8032   28.1041    2.1975 C.2       5 UNK         0.5055 
     38 O          26.3595   28.5219    3.2693 O.2       5 UNK        -0.5220 
     39 N          27.6835   28.7914    1.4512 N.am      6 UNK        -0.4450 
     40 CA         28.2306   30.1208    1.7554 C.3       6 UNK         0.0367 
     41 CB         28.8935   30.6807    0.4848 C.3       6 UNK        -0.1929 
     42 C          29.1838   30.1346    2.9703 C.2       6 UNK         0.5070 
     43 O          30.3909   30.3488    2.8176 O.2       6 UNK        -0.5237 
     44 N          28.6144   29.8814    4.1551 N.am      7 UNK        -0.4739 
     45 CA         29.2654   29.8107    5.4642 C.3       7 UNK         0.0276 
     46 CB         28.1962   29.5932    6.5459 C.3       7 UNK        -0.1927 
     47 C          30.1146   31.0508    5.7792 C.2       7 UNK         0.5013 
     48 O          29.6342   32.1740    5.6176 O.2       7 UNK        -0.5193 
     49 N          31.3658   30.8092    6.1932 N.am      8 UNK        -0.4253 
     50 CA         32.4264   31.7784    6.5065 C.3       8 UNK         0.0242 
     51 CB         32.0013   32.7344    7.6403 C.3       8 UNK        -0.2000 
     52 C          32.9915   32.5530    5.2971 C.2       8 UNK         0.4948 
     53 O          34.0319   33.1939    5.4504 O.2       8 UNK        -0.5275 
     54 N          32.3499   32.4693    4.1236 N.am      9 UNK        -0.4246 
     55 CA         32.8361   33.0452    2.8700 C.3       9 UNK         0.0261 
     56 CB         31.6545   33.5902    2.0515 C.3       9 UNK        -0.1959 
     57 C          33.6311   31.9979    2.0801 C.2       9 UNK         0.5033 
     58 O          34.7807   32.2546    1.7213 O.2       9 UNK        -0.5390 
     59 N          33.0232   30.8245    1.8552 N.am      10 UNK        -0.4215 
     60 CA         33.6431   29.6913    1.1588 C.3       10 UNK         0.0240 
     61 CB         32.5354   28.8558    0.4990 C.3       10 UNK        -0.1982 
     62 C          34.5101   28.8084    2.0764 C.2       10 UNK         0.4970 
     63 O          35.2499   27.9640    1.5701 O.2       10 UNK        -0.4916 
     64 N          34.3924   29.0008    3.3935 N.am      11 UNK        -0.4279 
     65 CA         35.0404   28.2068    4.4491 C.3       11 UNK         0.1003 
     66 C          35.6126   29.0773    5.6051 C.2       11 UNK         0.5709 
     67 N          35.7866   30.3807    5.4217 N.am      11 UNK        -0.7358 
     68 O          35.9268   28.5683    6.6782 O.2       11 UNK        -0.4999 
     69 C69        34.1365   27.0329    4.9269 C.3       12 UNK        -0.0954 
     70 S70        32.4451   27.5555    5.3845 S.3       12 UNK        -0.2268 
     71 C71        31.5009   27.0364    3.9148 C.3       12 UNK         0.0203 
     72 H72        26.5597   21.0099   -1.8433 H         1 UNK         0.0888 
     73 H73        27.4848   19.5265   -1.5990 H         1 UNK         0.0888 
     74 H74        26.1401   19.9142   -0.5237 H         1 UNK         0.0888 
     75 H75        29.4593   19.9294   -0.6712 H         1 UNK         0.3017 
     76 H76        31.0853   20.5857    0.5815 H         1 UNK         0.0873 
     77 H77        29.2626   22.1278    2.4792 H         1 UNK         0.0745 
     78 H78        29.4202   20.3940    2.5329 H         1 UNK         0.0745 
     79 H79        31.6045   22.1363    5.5575 H         1 UNK         0.0705 
     80 H80        30.0440   21.4290    5.2243 H         1 UNK         0.0705 
     81 H81        32.1478   24.4174    4.2791 H         1 UNK         0.1334 
     82 H82        28.7864   27.0827    4.2275 H         1 UNK         0.1417 
     83 H83        28.1941   22.9088    4.9819 H         1 UNK         0.1562 
     84 H84        26.6000   26.3019    4.8685 H         1 UNK         0.0748 
     85 H85        26.4798   24.7588    5.6686 H         1 UNK         0.0748 
     86 H86        24.7786   26.6646    3.2446 H         1 UNK         0.0940 
     87 H87        24.4346   25.6651    1.8884 H         1 UNK         0.0940 
     88 H88        27.2178   26.1238    1.5904 H         1 UNK         0.0703 
     89 H89        26.4487   26.3000   -0.4266 H         1 UNK         0.3081 
     90 H90        23.9499   27.0549   -2.0312 H         1 UNK         0.0719 
     91 H91        25.1667   29.8683   -2.0389 H         1 UNK         0.0809 
     92 H92        24.2737   29.1517   -3.3799 H         1 UNK         0.0809 
     93 H93        23.4671   29.4653   -1.8541 H         1 UNK         0.0809 
     94 H94        25.7469   26.3709   -3.1083 H         1 UNK         0.2990 
     95 H95        27.7165   26.0211   -3.8439 H         1 UNK         0.0690 
     96 H96        29.6534   27.1067   -4.9466 H         1 UNK         0.0788 
     97 H97        29.5218   28.5026   -3.8757 H         1 UNK         0.0788 
     98 H98        28.2501   28.1579   -5.0390 H         1 UNK         0.0788 
     99 H99        30.1697   26.5018   -2.5461 H         1 UNK         0.2993 
    100 H100       30.9924   24.8952   -1.1827 H         1 UNK         0.0949 
    101 H101       29.5511   25.8618    1.3542 H         1 UNK         0.0767 
    102 H102       31.2869   25.6975    1.1131 H         1 UNK         0.0767 
    103 H103       30.3901   26.9401    0.2481 H         1 UNK         0.0767 
    104 H104       28.8558   23.3743    0.1584 H         1 UNK         0.3013 
    105 H105       27.9494   28.4071    0.5544 H         1 UNK         0.3121 
    106 H106       27.3938   30.7774    2.0024 H         1 UNK         0.0774 
    107 H107       29.2916   31.6803    0.6553 H         1 UNK         0.0815 
    108 H108       29.7153   30.0502    0.1460 H         1 UNK         0.0815 
    109 H109       28.1762   30.7617   -0.3319 H         1 UNK         0.0815 
    110 H110       27.6256   29.6462    4.1322 H         1 UNK         0.2987 
    111 H111       29.9106   28.9340    5.4555 H         1 UNK         0.0949 
    112 H112       27.4872   30.4215    6.5819 H         1 UNK         0.0806 
    113 H113       27.6329   28.6764    6.3693 H         1 UNK         0.0806 
    114 H114       28.6504   29.5085    7.5341 H         1 UNK         0.0806 
    115 H115       31.6502   29.8406    6.2668 H         1 UNK         0.3010 
    116 H116       33.2574   31.1806    6.8846 H         1 UNK         0.0829 
    117 H117       31.6460   32.1848    8.5118 H         1 UNK         0.0813 
    118 H118       32.8419   33.3483    7.9665 H         1 UNK         0.0813 
    119 H119       31.2104   33.4159    7.3261 H         1 UNK         0.0813 
    120 H120       31.4898   31.9365    4.0773 H         1 UNK         0.3038 
    121 H121       33.5037   33.8841    3.0788 H         1 UNK         0.0769 
    122 H122       31.9938   33.9975    1.0981 H         1 UNK         0.0811 
    123 H123       31.1453   34.3932    2.5845 H         1 UNK         0.0811 
    124 H124       30.9178   32.8187    1.8346 H         1 UNK         0.0811 
    125 H125       32.0660   30.6894    2.1824 H         1 UNK         0.3204 
    126 H126       34.2952   30.0695    0.3685 H         1 UNK         0.0748 
    127 H127       32.9423   27.9695    0.0098 H         1 UNK         0.0771 
    128 H128       31.8023   28.5210    1.2323 H         1 UNK         0.0771 
    129 H129       32.0108   29.4314   -0.2631 H         1 UNK         0.0771 
    130 H130       33.7584   29.7147    3.7173 H         1 UNK         0.2980 
    131 H131       35.9368   27.7531    4.0233 H         1 UNK         0.0545 
    132 H132       36.1665   30.9332    6.1739 H         1 UNK         0.3459 
    133 H133       35.6075   30.8109    4.5290 H         1 UNK         0.3459 
    134 H134       34.5793   26.5180    5.7809 H         1 UNK         0.0616 
    135 H135       34.0847   26.2755    4.1442 H         1 UNK         0.0616 
    136 H136       30.9328   27.8872    3.5456 H         1 UNK         0.0634 
    137 H137       32.1701   26.7612    3.0997 H         1 UNK         0.0634 
@<TRIPOS>BOND
     1    1    2 1    
     2    1   72 1    
     3    1   73 1    
     4    1   74 1    
     5    2    3 2    
     6    2    4 am   BACKBONE|DICT|INTERRES
     7    4    5 1    
     8    4   75 1    
     9    5    6 1    
    10    5   35 1    
    11    5   76 1    
    12    6    7 1    
    13    6   77 1    
    14    6   78 1    
    15    7    8 1    
    16    8    9 1    
    17    8   79 1    
    18    8   80 1    
    19    9   10 ar   
    20    9   14 ar   
    21   10   11 ar   
    22   10   81 1    
    23   11   12 ar   
    24   11   71 1    
    25   12   13 ar   
    26   12   82 1    
    27   13   14 ar   
    28   13   15 1    
    29   14   83 1    
    30   15   16 1    
    31   15   84 1    
    32   15   85 1    
    33   16   17 1    
    34   17   18 1    
    35   17   86 1    
    36   17   87 1    
    37   18   19 1    
    38   18   37 1    
    39   18   88 1    
    40   19   20 am   BACKBONE|DICT|INTERRES
    41   19   89 1    
    42   20   21 2    
    43   20   22 1    
    44   22   23 1    
    45   22   24 1    
    46   22   90 1    
    47   23   91 1    
    48   23   92 1    
    49   23   93 1    
    50   24   25 am   BACKBONE|DICT|INTERRES
    51   24   94 1    
    52   25   26 2    
    53   25   27 1    
    54   27   28 1    
    55   27   29 1    
    56   27   95 1    
    57   28   96 1    
    58   28   97 1    
    59   28   98 1    
    60   29   30 am   BACKBONE|DICT|INTERRES
    61   29   99 1    
    62   30   31 2    
    63   30   32 1    
    64   32   33 1    
    65   32   34 1    
    66   32  100 1    
    67   33  101 1    
    68   33  102 1    
    69   33  103 1    
    70   34   35 am   BACKBONE|DICT|INTERRES
    71   34  104 1    
    72   35   36 2    
    73   37   38 2    
    74   37   39 am   BACKBONE|DICT|INTERRES
    75   39   40 1    
    76   39  105 1    
    77   40   41 1    
    78   40   42 1    
    79   40  106 1    
    80   41  107 1    
    81   41  108 1    
    82   41  109 1    
    83   42   43 2    
    84   42   44 am   BACKBONE|DICT|INTERRES
    85   44   45 1    
    86   44  110 1    
    87   45   46 1    
    88   45   47 1    
    89   45  111 1    
    90   46  112 1    
    91   46  113 1    
    92   46  114 1    
    93   47   48 2    
    94   47   49 am   BACKBONE|DICT|INTERRES
    95   49   50 1    
    96   49  115 1    
    97   50   51 1    
    98   50   52 1    
    99   50  116 1    
   100   51  117 1    
   101   51  118 1    
   102   51  119 1    
   103   52   53 2    
   104   52   54 am   BACKBONE|DICT|INTERRES
   105   54   55 1    
   106   54  120 1    
   107   55   56 1    
   108   55   57 1    
   109   55  121 1    
   110   56  122 1    
   111   56  123 1    
   112   56  124 1    
   113   57   58 2    
   114   57   59 am   BACKBONE|DICT|INTERRES
   115   59   60 1    
   116   59  125 1    
   117   60   61 1    
   118   60   62 1    
   119   60  126 1    
   120   61  127 1    
   121   61  128 1    
   122   61  129 1    
   123   62   63 2    
   124   62   64 am   BACKBONE|DICT|INTERRES
   125   64   65 1    
   126   64  130 1    
   127   65   66 1    
   128   65   69 1    
   129   65  131 1    
   130   66   67 am   BACKBONE|DICT|INTERRES
   131   66   68 2    
   132   67  132 1    
   133   67  133 1    
   134   69   70 1    
   135   69  134 1    
   136   69  135 1    
   137   70   71 1    
   138   71  136 1    
   139   71  137 1    
@<TRIPOS>SUBSTRUCTURE
     1 UNK         1 GROUP             0       ****    0 ROOT    
