@<TRIPOS>MOLECULE
3R136
137   139    1
SMALL
USER_CHARGES


@<TRIPOS>ATOM
      1 CA         26.6961   19.2954    1.6461 C.3       0 UNK        -0.1979 
      2 C          27.8855   19.8122    0.8501 C.2       0 UNK         0.4864 
      3 O          28.2838   19.1854   -0.1332 O.2       0 UNK        -0.5359 
      4 N          28.4577   20.9466    1.2713 N.am      1 UNK        -0.4318 
      5 CA         29.5662   21.6238    0.5950 C.3       1 UNK         0.0824 
      6 C6         30.2734   22.6320    1.5359 C.3       12 UNK        -0.0944 
      7 S7         31.3737   21.8034    2.7300 S.3       12 UNK        -0.2672 
      8 C8         30.3094   21.5790    4.1943 C.3       12 UNK         0.0333 
      9 C9         29.8135   22.8914    4.7895 C.ar      12 UNK        -0.0807 
     10 C10        30.7181   23.8880    5.1675 C.ar      12 UNK        -0.0894 
     11 C11        30.2652   25.0888    5.7216 C.ar      12 UNK        -0.0804 
     12 C12        28.8960   25.2781    5.9292 C.ar      12 UNK        -0.0824 
     13 C13        27.9817   24.2882    5.5575 C.ar      12 UNK        -0.0762 
     14 C14        28.4455   23.0989    4.9875 C.ar      12 UNK        -0.0782 
     15 C15        26.4907   24.4927    5.7708 C.3       12 UNK         0.0230 
     16 S16        25.6766   25.0515    4.2432 S.3       12 UNK        -0.2608 
     17 C17        26.0763   26.8343    4.2283 C.3       12 UNK        -0.0989 
     18 CA         27.2693   27.2147    3.3026 C.3       5 UNK         0.0716 
     19 N          27.1677   26.6580    1.9483 N.am      5 UNK        -0.4135 
     20 C          26.2172   26.9185    1.0397 C.2       4 UNK         0.5031 
     21 O          25.2911   27.7123    1.2167 O.2       4 UNK        -0.5229 
     22 CA         26.3364   26.1523   -0.2937 C.3       4 UNK         0.0329 
     23 CB         25.4948   26.7809   -1.4248 C.3       4 UNK        -0.2001 
     24 N          27.7254   25.9528   -0.7321 N.am      4 UNK        -0.4303 
     25 C          28.6313   26.9095   -1.0011 C.2       3 UNK         0.5044 
     26 O          28.4133   28.1104   -0.8501 O.2       3 UNK        -0.5152 
     27 CA         30.0305   26.4748   -1.4840 C.3       3 UNK         0.0319 
     28 CB         31.0746   26.7483   -0.3893 C.3       3 UNK        -0.2001 
     29 N          30.1223   25.0666   -1.8724 N.am      3 UNK        -0.4354 
     30 C          29.5266   24.5026   -2.9330 C.2       2 UNK         0.4964 
     31 O          28.9138   25.1355   -3.7927 O.2       2 UNK        -0.5047 
     32 CA         29.5937   22.9653   -3.0281 C.3       2 UNK         0.0288 
     33 CB         30.6601   22.5359   -4.0491 C.3       2 UNK        -0.2113 
     34 N          29.8550   22.2932   -1.7463 N.am      2 UNK        -0.4145 
     35 C          29.0559   22.3403   -0.6690 C.2       1 UNK         0.5006 
     36 O          27.9997   22.9777   -0.6268 O.2       1 UNK        -0.5103 
     37 C          27.5433   28.7382    3.3170 C.2       5 UNK         0.5055 
     38 O          27.1896   29.4063    4.2917 O.2       5 UNK        -0.5220 
     39 N          28.1713   29.2772    2.2595 N.am      6 UNK        -0.4450 
     40 CA         28.4981   30.6991    2.0963 C.3       6 UNK         0.0367 
     41 CB         28.7542   30.9872    0.6059 C.3       6 UNK        -0.1929 
     42 C          29.6736   31.1570    2.9837 C.2       6 UNK         0.5070 
     43 O          30.6644   31.6802    2.4730 O.2       6 UNK        -0.5237 
     44 N          29.5359   30.9824    4.3040 N.am      7 UNK        -0.4739 
     45 CA         30.5399   31.2681    5.3379 C.3       7 UNK         0.0276 
     46 CB         29.9781   30.8492    6.7062 C.3       7 UNK        -0.1927 
     47 C          31.0359   32.7244    5.3872 C.2       7 UNK         0.5013 
     48 O          32.1386   32.9659    5.8788 O.2       7 UNK        -0.5193 
     49 N          30.2346   33.6604    4.8588 N.am      8 UNK        -0.4253 
     50 CA         30.6059   35.0618    4.6472 C.3       8 UNK         0.0242 
     51 CB         29.3542   35.8606    4.2489 C.3       8 UNK        -0.2000 
     52 C          31.7195   35.2459    3.5968 C.2       8 UNK         0.4948 
     53 O          32.4428   36.2407    3.6656 O.2       8 UNK        -0.5275 
     54 N          31.8407   34.2958    2.6591 N.am      9 UNK        -0.4246 
     55 CA         32.9228   34.2105    1.6839 C.3       9 UNK         0.0261 
     56 CB         32.3467   33.8814    0.2935 C.3       9 UNK        -0.1959 
     57 C          33.9314   33.1554    2.1576 C.2       9 UNK         0.5033 
     58 O          35.0427   33.5194    2.5444 O.2       9 UNK        -0.5390 
     59 N          33.5138   31.8831    2.1428 N.am      10 UNK        -0.4215 
     60 CA         34.2590   30.6923    2.5494 C.3       10 UNK         0.0240 
     61 CB         35.5737   30.5386    1.7525 C.3       10 UNK        -0.1982 
     62 C          33.3768   29.4618    2.3047 C.2       10 UNK         0.4970 
     63 O          32.5702   29.4655    1.3729 O.2       10 UNK        -0.4916 
     64 N          33.5943   28.4148    3.1022 N.am      11 UNK        -0.4279 
     65 CA         32.9991   27.0833    2.9463 C.3       11 UNK         0.1003 
     66 C          33.8864   26.0055    3.6206 C.2       11 UNK         0.5709 
     67 N          33.6742   24.7357    3.3041 N.am      11 UNK        -0.7358 
     68 O          34.7664   26.3066    4.4264 O.2       11 UNK        -0.4999 
     69 C69        31.5018   27.0090    3.3665 C.3       12 UNK        -0.0954 
     70 S70        31.1295   27.6498    5.0365 S.3       12 UNK        -0.2268 
     71 C71        31.2581   26.1767    6.1021 C.3       12 UNK         0.0203 
     72 H72        26.9063   18.2972    2.0293 H         1 UNK         0.0888 
     73 H73        26.4597   19.9403    2.4923 H         1 UNK         0.0888 
     74 H74        25.8148   19.2373    1.0078 H         1 UNK         0.0888 
     75 H75        28.0578   21.4415    2.0538 H         1 UNK         0.3017 
     76 H76        30.2902   20.8667    0.2843 H         1 UNK         0.0873 
     77 H77        30.9106   23.3119    0.9671 H         1 UNK         0.0745 
     78 H78        29.5526   23.2674    2.0537 H         1 UNK         0.0745 
     79 H79        29.4761   20.9270    3.9303 H         1 UNK         0.0705 
     80 H80        30.8793   21.0468    4.9570 H         1 UNK         0.0705 
     81 H81        31.7771   23.7280    5.0212 H         1 UNK         0.1334 
     82 H82        28.5444   26.2034    6.3651 H         1 UNK         0.1417 
     83 H83        27.7353   22.3338    4.7049 H         1 UNK         0.1562 
     84 H84        26.3034   25.1997    6.5804 H         1 UNK         0.0748 
     85 H85        26.0366   23.5514    6.0840 H         1 UNK         0.0748 
     86 H86        26.2693   27.1604    5.2518 H         1 UNK         0.0940 
     87 H87        25.1762   27.3680    3.9176 H         1 UNK         0.0940 
     88 H88        28.1678   26.7659    3.7256 H         1 UNK         0.0703 
     89 H89        27.8724   25.9791    1.7026 H         1 UNK         0.3081 
     90 H90        25.9357   25.1555   -0.1024 H         1 UNK         0.0719 
     91 H91        25.8004   27.8067   -1.6337 H         1 UNK         0.0809 
     92 H92        25.5834   26.2096   -2.3488 H         1 UNK         0.0809 
     93 H93        24.4371   26.8046   -1.1596 H         1 UNK         0.0809 
     94 H94        27.9965   24.9818   -0.8549 H         1 UNK         0.2990 
     95 H95        30.2749   27.0846   -2.3562 H         1 UNK         0.0690 
     96 H96        32.0855   26.5420   -0.7415 H         1 UNK         0.0788 
     97 H97        30.8958   26.1425    0.4993 H         1 UNK         0.0788 
     98 H98        31.0518   27.7945   -0.0809 H         1 UNK         0.0788 
     99 H99        30.6331   24.4622   -1.2475 H         1 UNK         0.2993 
    100 H100       28.6188   22.6256   -3.3848 H         1 UNK         0.0949 
    101 H101       30.4773   22.9954   -5.0218 H         1 UNK         0.0767 
    102 H102       31.6627   22.8285   -3.7340 H         1 UNK         0.0767 
    103 H103       30.6553   21.4560   -4.1986 H         1 UNK         0.0767 
    104 H104       30.7074   21.7531   -1.6935 H         1 UNK         0.3013 
    105 H105       28.4125   28.6779    1.4812 H         1 UNK         0.3121 
    106 H106       27.6274   31.2852    2.3975 H         1 UNK         0.0774 
    107 H107       29.6174   30.4333    0.2333 H         1 UNK         0.0815 
    108 H108       28.9493   32.0471    0.4374 H         1 UNK         0.0815 
    109 H109       27.8928   30.7172   -0.0052 H         1 UNK         0.0815 
    110 H110       28.6810   30.5246    4.6115 H         1 UNK         0.2987 
    111 H111       31.4118   30.6491    5.1171 H         1 UNK         0.0949 
    112 H112       29.0927   31.4281    6.9718 H         1 UNK         0.0806 
    113 H113       29.7038   29.7943    6.7186 H         1 UNK         0.0806 
    114 H114       30.7165   30.9990    7.4951 H         1 UNK         0.0806 
    115 H115       29.3420   33.3617    4.4940 H         1 UNK         0.3010 
    116 H116       30.9803   35.4567    5.5942 H         1 UNK         0.0829 
    117 H117       28.5838   35.8026    5.0181 H         1 UNK         0.0813 
    118 H118       29.5933   36.9163    4.1118 H         1 UNK         0.0813 
    119 H119       28.9250   35.5000    3.3132 H         1 UNK         0.0813 
    120 H120       31.2359   33.4798    2.7104 H         1 UNK         0.3038 
    121 H121       33.4472   35.1657    1.6090 H         1 UNK         0.0769 
    122 H122       31.7520   32.9672    0.2936 H         1 UNK         0.0811 
    123 H123       33.1452   33.7529   -0.4384 H         1 UNK         0.0811 
    124 H124       31.7074   34.6885   -0.0644 H         1 UNK         0.0811 
    125 H125       32.5493   31.6863    1.8780 H         1 UNK         0.3204 
    126 H126       34.4760   30.7716    3.6164 H         1 UNK         0.0748 
    127 H127       36.0640   29.5909    1.9797 H         1 UNK         0.0771 
    128 H128       35.3943   30.5623    0.6769 H         1 UNK         0.0771 
    129 H129       36.2903   31.3239    1.9903 H         1 UNK         0.0771 
    130 H130       34.2986   28.4635    3.8267 H         1 UNK         0.2980 
    131 H131       33.0487   26.8534    1.8803 H         1 UNK         0.0545 
    132 H132       34.2512   24.0277    3.7294 H         1 UNK         0.3459 
    133 H133       32.9598   24.4665    2.6474 H         1 UNK         0.3459 
    134 H134       30.9131   27.6084    2.6710 H         1 UNK         0.0616 
    135 H135       31.1148   25.9955    3.2595 H         1 UNK         0.0616 
    136 H136       32.2809   25.7994    6.0745 H         1 UNK         0.0634 
    137 H137       31.0758   26.4788    7.1342 H         1 UNK         0.0634 
@<TRIPOS>BOND
     1    1    2 1    
     2    1   72 1    
     3    1   73 1    
     4    1   74 1    
     5    2    3 2    
     6    2    4 am   BACKBONE|DICT|INTERRES
     7    4    5 1    
     8    4   75 1    
     9    5    6 1    
    10    5   35 1    
    11    5   76 1    
    12    6    7 1    
    13    6   77 1    
    14    6   78 1    
    15    7    8 1    
    16    8    9 1    
    17    8   79 1    
    18    8   80 1    
    19    9   10 ar   
    20    9   14 ar   
    21   10   11 ar   
    22   10   81 1    
    23   11   12 ar   
    24   11   71 1    
    25   12   13 ar   
    26   12   82 1    
    27   13   14 ar   
    28   13   15 1    
    29   14   83 1    
    30   15   16 1    
    31   15   84 1    
    32   15   85 1    
    33   16   17 1    
    34   17   18 1    
    35   17   86 1    
    36   17   87 1    
    37   18   19 1    
    38   18   37 1    
    39   18   88 1    
    40   19   20 am   BACKBONE|DICT|INTERRES
    41   19   89 1    
    42   20   21 2    
    43   20   22 1    
    44   22   23 1    
    45   22   24 1    
    46   22   90 1    
    47   23   91 1    
    48   23   92 1    
    49   23   93 1    
    50   24   25 am   BACKBONE|DICT|INTERRES
    51   24   94 1    
    52   25   26 2    
    53   25   27 1    
    54   27   28 1    
    55   27   29 1    
    56   27   95 1    
    57   28   96 1    
    58   28   97 1    
    59   28   98 1    
    60   29   30 am   BACKBONE|DICT|INTERRES
    61   29   99 1    
    62   30   31 2    
    63   30   32 1    
    64   32   33 1    
    65   32   34 1    
    66   32  100 1    
    67   33  101 1    
    68   33  102 1    
    69   33  103 1    
    70   34   35 am   BACKBONE|DICT|INTERRES
    71   34  104 1    
    72   35   36 2    
    73   37   38 2    
    74   37   39 am   BACKBONE|DICT|INTERRES
    75   39   40 1    
    76   39  105 1    
    77   40   41 1    
    78   40   42 1    
    79   40  106 1    
    80   41  107 1    
    81   41  108 1    
    82   41  109 1    
    83   42   43 2    
    84   42   44 am   BACKBONE|DICT|INTERRES
    85   44   45 1    
    86   44  110 1    
    87   45   46 1    
    88   45   47 1    
    89   45  111 1    
    90   46  112 1    
    91   46  113 1    
    92   46  114 1    
    93   47   48 2    
    94   47   49 am   BACKBONE|DICT|INTERRES
    95   49   50 1    
    96   49  115 1    
    97   50   51 1    
    98   50   52 1    
    99   50  116 1    
   100   51  117 1    
   101   51  118 1    
   102   51  119 1    
   103   52   53 2    
   104   52   54 am   BACKBONE|DICT|INTERRES
   105   54   55 1    
   106   54  120 1    
   107   55   56 1    
   108   55   57 1    
   109   55  121 1    
   110   56  122 1    
   111   56  123 1    
   112   56  124 1    
   113   57   58 2    
   114   57   59 am   BACKBONE|DICT|INTERRES
   115   59   60 1    
   116   59  125 1    
   117   60   61 1    
   118   60   62 1    
   119   60  126 1    
   120   61  127 1    
   121   61  128 1    
   122   61  129 1    
   123   62   63 2    
   124   62   64 am   BACKBONE|DICT|INTERRES
   125   64   65 1    
   126   64  130 1    
   127   65   66 1    
   128   65   69 1    
   129   65  131 1    
   130   66   67 am   BACKBONE|DICT|INTERRES
   131   66   68 2    
   132   67  132 1    
   133   67  133 1    
   134   69   70 1    
   135   69  134 1    
   136   69  135 1    
   137   70   71 1    
   138   71  136 1    
   139   71  137 1    
@<TRIPOS>SUBSTRUCTURE
     1 UNK         1 GROUP             0       ****    0 ROOT    
