@<TRIPOS>MOLECULE
3R136
137   139    1
SMALL
USER_CHARGES


@<TRIPOS>ATOM
      1 CA         30.6672   24.2410   -1.9936 C.3       0 UNK        -0.1979 
      2 C          30.0460   23.9124   -0.6454 C.2       0 UNK         0.4864 
      3 O          29.8161   24.8209    0.1549 O.2       0 UNK        -0.5359 
      4 N          29.7456   22.6291   -0.3982 N.am      1 UNK        -0.4318 
      5 CA         29.2508   22.1003    0.8826 C.3       1 UNK         0.0824 
      6 C6         29.1617   20.5534    0.8874 C.3       12 UNK        -0.0944 
      7 S7         30.7622   19.7493    0.5405 S.3       12 UNK        -0.2672 
      8 C8         31.3914   19.4472    2.2242 C.3       12 UNK         0.0333 
      9 C9         31.7409   20.7493    2.9296 C.ar      12 UNK        -0.0807 
     10 C10        32.9193   21.4248    2.6010 C.ar      12 UNK        -0.0894 
     11 C11        33.2386   22.6355    3.2206 C.ar      12 UNK        -0.0804 
     12 C12        32.3727   23.1625    4.1825 C.ar      12 UNK        -0.0824 
     13 C13        31.1675   22.5217    4.4915 C.ar      12 UNK        -0.0762 
     14 C14        30.8735   21.2983    3.8805 C.ar      12 UNK        -0.0782 
     15 C15        30.1693   23.1283    5.4774 C.3       12 UNK         0.0230 
     16 S16        30.0970   24.9559    5.4617 S.3       12 UNK        -0.2608 
     17 C17        29.4272   25.3086    3.7997 C.3       12 UNK        -0.0989 
     18 CA         29.5344   26.8122    3.4346 C.3       5 UNK         0.0716 
     19 N          29.6279   27.0204    1.9843 N.am      5 UNK        -0.4135 
     20 C          29.8683   28.2021    1.3966 C.2       4 UNK         0.5031 
     21 O          29.9714   29.2609    2.0112 O.2       4 UNK        -0.5229 
     22 CA         29.9940   28.2186   -0.1303 C.3       4 UNK         0.0329 
     23 CB         31.3710   27.7000   -0.5772 C.3       4 UNK        -0.2001 
     24 N          28.9272   27.4253   -0.7414 N.am      4 UNK        -0.4303 
     25 C          27.7929   27.9524   -1.2208 C.2       3 UNK         0.5044 
     26 O          27.5597   29.1610   -1.2565 O.2       3 UNK        -0.5152 
     27 CA         26.7279   26.9850   -1.7675 C.3       3 UNK         0.0319 
     28 CB         26.9802   26.7067   -3.2585 C.3       3 UNK        -0.2001 
     29 N          26.5789   25.7081   -1.0606 N.am      3 UNK        -0.4354 
     30 C          26.3467   25.5521    0.2523 C.2       2 UNK         0.4964 
     31 O          26.4155   26.4573    1.0814 O.2       2 UNK        -0.5047 
     32 CA         25.9978   24.1331    0.7171 C.3       2 UNK         0.0288 
     33 CB         24.7274   23.5999    0.0300 C.3       2 UNK        -0.2113 
     34 N          27.1272   23.2538    0.4335 N.am      2 UNK        -0.4145 
     35 C          27.9203   22.7141    1.3657 C.2       1 UNK         0.5006 
     36 O          27.6580   22.7027    2.5691 O.2       1 UNK        -0.5103 
     37 C          28.4272   27.6531    4.1130 C.2       5 UNK         0.5055 
     38 O          28.6469   28.1585    5.2151 O.2       5 UNK        -0.5220 
     39 N          27.2732   27.8111    3.4478 N.am      6 UNK        -0.4450 
     40 CA         26.1485   28.6128    3.9390 C.3       6 UNK         0.0367 
     41 CB         24.8410   28.0712    3.3363 C.3       6 UNK        -0.1929 
     42 C          26.2859   30.1192    3.6463 C.2       6 UNK         0.5070 
     43 O          25.4988   30.8972    4.1881 O.2       6 UNK        -0.5237 
     44 N          27.2383   30.5198    2.7921 N.am      7 UNK        -0.4739 
     45 CA         27.4843   31.9207    2.4431 C.3       7 UNK         0.0276 
     46 CB         28.1733   31.9900    1.0698 C.3       7 UNK        -0.1927 
     47 C          28.3483   32.6077    3.5104 C.2       7 UNK         0.5013 
     48 O          29.1507   31.9467    4.1726 O.2       7 UNK        -0.5193 
     49 N          28.2180   33.9377    3.6160 N.am      8 UNK        -0.4253 
     50 CA         28.9613   34.7839    4.5608 C.3       8 UNK         0.0242 
     51 CB         28.4289   36.2239    4.4789 C.3       8 UNK        -0.2000 
     52 C          30.4904   34.7640    4.3674 C.2       8 UNK         0.4948 
     53 O          31.2222   35.0011    5.3289 O.2       8 UNK        -0.5275 
     54 N          30.9433   34.4657    3.1416 N.am      9 UNK        -0.4246 
     55 CA         32.3522   34.2688    2.7940 C.3       9 UNK         0.0261 
     56 CB         32.5034   34.3491    1.2656 C.3       9 UNK        -0.1959 
     57 C          32.9406   32.9438    3.3200 C.2       9 UNK         0.5033 
     58 O          34.1643   32.8531    3.4352 O.2       9 UNK        -0.5390 
     59 N          32.0756   31.9597    3.6195 N.am      10 UNK        -0.4215 
     60 CA         32.3678   30.5836    4.0400 C.3       10 UNK         0.0240 
     61 CB         33.1457   30.5693    5.3744 C.3       10 UNK        -0.1982 
     62 C          33.0646   29.7340    2.9563 C.2       10 UNK         0.4970 
     63 O          33.4372   30.2319    1.8911 O.2       10 UNK        -0.4916 
     64 N          33.2062   28.4375    3.2517 N.am      11 UNK        -0.4279 
     65 CA         33.9506   27.4697    2.4392 C.3       11 UNK         0.1003 
     66 C          35.4820   27.7066    2.5588 C.2       11 UNK         0.5709 
     67 N          36.2066   27.7052    1.4482 N.am      11 UNK        -0.7358 
     68 O          36.0176   27.8637    3.6548 O.2       11 UNK        -0.4999 
     69 C69        33.5390   26.0306    2.8340 C.3       12 UNK        -0.0954 
     70 S70        34.1421   24.7502    1.6820 S.3       12 UNK        -0.2268 
     71 C71        34.5057   23.3837    2.8317 C.3       12 UNK         0.0203 
     72 H72        30.7512   23.3600   -2.6294 H         1 UNK         0.0888 
     73 H73        30.0647   24.9821   -2.5173 H         1 UNK         0.0888 
     74 H74        31.6659   24.6530   -1.8511 H         1 UNK         0.0888 
     75 H75        29.9625   21.9284   -1.0931 H         1 UNK         0.3017 
     76 H76        29.9898   22.4088    1.6212 H         1 UNK         0.0873 
     77 H77        28.7881   20.1867    1.8457 H         1 UNK         0.0745 
     78 H78        28.4443   20.2140    0.1379 H         1 UNK         0.0745 
     79 H79        32.2813   18.8193    2.1608 H         1 UNK         0.0705 
     80 H80        30.6569   18.8773    2.7955 H         1 UNK         0.0705 
     81 H81        33.5786   21.0138    1.8484 H         1 UNK         0.1334 
     82 H82        32.6229   24.0928    4.6698 H         1 UNK         0.1417 
     83 H83        29.9498   20.7886    4.1200 H         1 UNK         0.1562 
     84 H84        30.4349   22.7997    6.4829 H         1 UNK         0.0748 
     85 H85        29.1654   22.7475    5.2811 H         1 UNK         0.0748 
     86 H86        28.3959   24.9567    3.7380 H         1 UNK         0.0940 
     87 H87        29.9926   24.7091    3.0840 H         1 UNK         0.0940 
     88 H88        30.4822   27.1829    3.8304 H         1 UNK         0.0703 
     89 H89        29.5835   26.1906    1.3964 H         1 UNK         0.3081 
     90 H90        29.9203   29.2578   -0.4586 H         1 UNK         0.0719 
     91 H91        31.6044   26.7214   -0.1574 H         1 UNK         0.0809 
     92 H92        31.4342   27.6244   -1.6627 H         1 UNK         0.0809 
     93 H93        32.1554   28.3861   -0.2565 H         1 UNK         0.0809 
     94 H94        29.0254   26.4173   -0.6855 H         1 UNK         0.2990 
     95 H95        25.7677   27.4981   -1.6819 H         1 UNK         0.0690 
     96 H96        27.8997   26.1413   -3.4138 H         1 UNK         0.0788 
     97 H97        27.0720   27.6376   -3.8203 H         1 UNK         0.0788 
     98 H98        26.1592   26.1444   -3.7038 H         1 UNK         0.0788 
     99 H99        26.4937   24.8970   -1.6538 H         1 UNK         0.2993 
    100 H100       25.8031   24.1830    1.7911 H         1 UNK         0.0949 
    101 H101       24.8561   23.4753   -1.0455 H         1 UNK         0.0767 
    102 H102       24.4402   22.6321    0.4415 H         1 UNK         0.0767 
    103 H103       23.8868   24.2780    0.1844 H         1 UNK         0.0767 
    104 H104       27.4468   23.2092   -0.5225 H         1 UNK         0.3013 
    105 H105       27.1427   27.3558    2.5456 H         1 UNK         0.3121 
    106 H106       26.0847   28.4997    5.0234 H         1 UNK         0.0774 
    107 H107       23.9749   28.5760    3.7661 H         1 UNK         0.0815 
    108 H108       24.8018   28.2240    2.2572 H         1 UNK         0.0815 
    109 H109       24.7236   27.0048    3.5297 H         1 UNK         0.0815 
    110 H110       27.9274   29.8495    2.4726 H         1 UNK         0.2987 
    111 H111       26.5264   32.4417    2.3751 H         1 UNK         0.0949 
    112 H112       29.1754   31.5613    1.0935 H         1 UNK         0.0806 
    113 H113       27.6003   31.4567    0.3111 H         1 UNK         0.0806 
    114 H114       28.2715   33.0221    0.7319 H         1 UNK         0.0806 
    115 H115       27.5467   34.4080    3.0251 H         1 UNK         0.3010 
    116 H116       28.7623   34.4028    5.5648 H         1 UNK         0.0829 
    117 H117       28.9438   36.8715    5.1902 H         1 UNK         0.0813 
    118 H118       28.5725   36.6525    3.4861 H         1 UNK         0.0813 
    119 H119       27.3657   36.2695    4.7155 H         1 UNK         0.0813 
    120 H120       30.2666   34.3101    2.4091 H         1 UNK         0.3038 
    121 H121       32.9303   35.0825    3.2376 H         1 UNK         0.0769 
    122 H122       33.5485   34.2412    0.9719 H         1 UNK         0.0811 
    123 H123       32.1580   35.3087    0.8804 H         1 UNK         0.0811 
    124 H124       31.9425   33.5602    0.7624 H         1 UNK         0.0811 
    125 H125       31.0837   32.1524    3.5258 H         1 UNK         0.3204 
    126 H126       31.3931   30.1248    4.2162 H         1 UNK         0.0748 
    127 H127       33.1890   29.5667    5.8004 H         1 UNK         0.0771 
    128 H128       34.1738   30.9109    5.2494 H         1 UNK         0.0771 
    129 H129       32.6683   31.2098    6.1162 H         1 UNK         0.0771 
    130 H130       32.9047   28.1109    4.1567 H         1 UNK         0.2980 
    131 H131       33.6596   27.6235    1.3993 H         1 UNK         0.0545 
    132 H132       37.2023   27.8464    1.5122 H         1 UNK         0.3459 
    133 H133       35.7779   27.5574    0.5481 H         1 UNK         0.3459 
    134 H134       33.8832   25.8147    3.8464 H         1 UNK         0.0616 
    135 H135       32.4515   25.9462    2.8547 H         1 UNK         0.0616 
    136 H136       35.0135   23.7607    3.7206 H         1 UNK         0.0634 
    137 H137       35.2091   22.7043    2.3481 H         1 UNK         0.0634 
@<TRIPOS>BOND
     1    1    2 1    
     2    1   72 1    
     3    1   73 1    
     4    1   74 1    
     5    2    3 2    
     6    2    4 am   BACKBONE|DICT|INTERRES
     7    4    5 1    
     8    4   75 1    
     9    5    6 1    
    10    5   35 1    
    11    5   76 1    
    12    6    7 1    
    13    6   77 1    
    14    6   78 1    
    15    7    8 1    
    16    8    9 1    
    17    8   79 1    
    18    8   80 1    
    19    9   10 ar   
    20    9   14 ar   
    21   10   11 ar   
    22   10   81 1    
    23   11   12 ar   
    24   11   71 1    
    25   12   13 ar   
    26   12   82 1    
    27   13   14 ar   
    28   13   15 1    
    29   14   83 1    
    30   15   16 1    
    31   15   84 1    
    32   15   85 1    
    33   16   17 1    
    34   17   18 1    
    35   17   86 1    
    36   17   87 1    
    37   18   19 1    
    38   18   37 1    
    39   18   88 1    
    40   19   20 am   BACKBONE|DICT|INTERRES
    41   19   89 1    
    42   20   21 2    
    43   20   22 1    
    44   22   23 1    
    45   22   24 1    
    46   22   90 1    
    47   23   91 1    
    48   23   92 1    
    49   23   93 1    
    50   24   25 am   BACKBONE|DICT|INTERRES
    51   24   94 1    
    52   25   26 2    
    53   25   27 1    
    54   27   28 1    
    55   27   29 1    
    56   27   95 1    
    57   28   96 1    
    58   28   97 1    
    59   28   98 1    
    60   29   30 am   BACKBONE|DICT|INTERRES
    61   29   99 1    
    62   30   31 2    
    63   30   32 1    
    64   32   33 1    
    65   32   34 1    
    66   32  100 1    
    67   33  101 1    
    68   33  102 1    
    69   33  103 1    
    70   34   35 am   BACKBONE|DICT|INTERRES
    71   34  104 1    
    72   35   36 2    
    73   37   38 2    
    74   37   39 am   BACKBONE|DICT|INTERRES
    75   39   40 1    
    76   39  105 1    
    77   40   41 1    
    78   40   42 1    
    79   40  106 1    
    80   41  107 1    
    81   41  108 1    
    82   41  109 1    
    83   42   43 2    
    84   42   44 am   BACKBONE|DICT|INTERRES
    85   44   45 1    
    86   44  110 1    
    87   45   46 1    
    88   45   47 1    
    89   45  111 1    
    90   46  112 1    
    91   46  113 1    
    92   46  114 1    
    93   47   48 2    
    94   47   49 am   BACKBONE|DICT|INTERRES
    95   49   50 1    
    96   49  115 1    
    97   50   51 1    
    98   50   52 1    
    99   50  116 1    
   100   51  117 1    
   101   51  118 1    
   102   51  119 1    
   103   52   53 2    
   104   52   54 am   BACKBONE|DICT|INTERRES
   105   54   55 1    
   106   54  120 1    
   107   55   56 1    
   108   55   57 1    
   109   55  121 1    
   110   56  122 1    
   111   56  123 1    
   112   56  124 1    
   113   57   58 2    
   114   57   59 am   BACKBONE|DICT|INTERRES
   115   59   60 1    
   116   59  125 1    
   117   60   61 1    
   118   60   62 1    
   119   60  126 1    
   120   61  127 1    
   121   61  128 1    
   122   61  129 1    
   123   62   63 2    
   124   62   64 am   BACKBONE|DICT|INTERRES
   125   64   65 1    
   126   64  130 1    
   127   65   66 1    
   128   65   69 1    
   129   65  131 1    
   130   66   67 am   BACKBONE|DICT|INTERRES
   131   66   68 2    
   132   67  132 1    
   133   67  133 1    
   134   69   70 1    
   135   69  134 1    
   136   69  135 1    
   137   70   71 1    
   138   71  136 1    
   139   71  137 1    
@<TRIPOS>SUBSTRUCTURE
     1 UNK         1 GROUP             0       ****    0 ROOT    
