@<TRIPOS>MOLECULE
3R136
137   139    1
SMALL
USER_CHARGES


@<TRIPOS>ATOM
      1 CA         29.1345   26.5410    4.0354 C.3       0 UNK        -0.1979 
      2 C          28.4564   25.1828    4.0498 C.2       0 UNK         0.4864 
      3 O          27.6762   24.9017    4.9598 O.2       0 UNK        -0.5359 
      4 N          28.7294   24.3439    3.0411 N.am      1 UNK        -0.4318 
      5 CA         28.1067   23.0242    2.8729 C.3       1 UNK         0.0824 
      6 C6         28.9658   22.0906    1.9856 C.3       12 UNK        -0.0944 
      7 S7         29.2201   22.6871    0.2755 S.3       12 UNK        -0.2672 
      8 C8         31.0294   22.8838    0.2064 C.3       12 UNK         0.0333 
      9 C9         31.4528   24.2930    0.5906 C.ar      12 UNK        -0.0807 
     10 C10        31.8878   24.5904    1.8861 C.ar      12 UNK        -0.0894 
     11 C11        32.2932   25.8880    2.2242 C.ar      12 UNK        -0.0804 
     12 C12        32.2610   26.8882    1.2421 C.ar      12 UNK        -0.0824 
     13 C13        31.8225   26.6018   -0.0537 C.ar      12 UNK        -0.0762 
     14 C14        31.4283   25.3013   -0.3741 C.ar      12 UNK        -0.0782 
     15 C15        31.7768   27.6930   -1.1140 C.3       12 UNK         0.0230 
     16 S16        30.2388   28.6637   -1.0243 S.3       12 UNK        -0.2608 
     17 C17        28.9767   27.3723   -1.2898 C.3       12 UNK        -0.0989 
     18 CA         27.5768   27.9472   -1.6437 C.3       5 UNK         0.0716 
     19 N          26.7574   26.9830   -2.3733 N.am      5 UNK        -0.4135 
     20 C          26.9448   26.5868   -3.6367 C.2       4 UNK         0.5031 
     21 O          27.8272   27.0399   -4.3679 O.2       4 UNK        -0.5229 
     22 CA         26.0281   25.4593   -4.1395 C.3       4 UNK         0.0329 
     23 CB         26.4646   24.8994   -5.5117 C.3       4 UNK        -0.2001 
     24 N          25.9868   24.3956   -3.1343 N.am      4 UNK        -0.4303 
     25 C          25.0794   23.4144   -3.0596 C.2       3 UNK         0.5044 
     26 O          24.1522   23.2649   -3.8563 O.2       3 UNK        -0.5152 
     27 CA         25.2266   22.4476   -1.8725 C.3       3 UNK         0.0319 
     28 CB         26.3760   21.4541   -2.1105 C.3       3 UNK        -0.2001 
     29 N          25.4423   23.1556   -0.6075 N.am      3 UNK        -0.4354 
     30 C          24.4996   23.8619    0.0356 C.2       2 UNK         0.4964 
     31 O          23.3397   23.9608   -0.3676 O.2       2 UNK        -0.5047 
     32 CA         24.9066   24.6068    1.3239 C.3       2 UNK         0.0288 
     33 CB         23.8318   24.5005    2.4274 C.3       2 UNK        -0.2113 
     34 N          26.2366   24.2605    1.8444 N.am      2 UNK        -0.4145 
     35 C          26.6412   23.0980    2.3836 C.2       1 UNK         0.5006 
     36 O          25.9225   22.1035    2.4933 O.2       1 UNK        -0.5103 
     37 C          26.7875   28.3849   -0.3948 C.2       5 UNK         0.5055 
     38 O          25.6993   27.8595   -0.1401 O.2       5 UNK        -0.5220 
     39 N          27.3595   29.3182    0.3681 N.am      6 UNK        -0.4450 
     40 CA         26.8725   29.8009    1.6559 C.3       6 UNK         0.0367 
     41 CB         26.1235   31.1297    1.4565 C.3       6 UNK        -0.1929 
     42 C          28.0821   29.9769    2.5830 C.2       6 UNK         0.5070 
     43 O          29.2144   30.0553    2.1002 O.2       6 UNK        -0.5237 
     44 N          27.8272   30.0236    3.8960 N.am      7 UNK        -0.4739 
     45 CA         28.8582   30.1660    4.9276 C.3       7 UNK         0.0276 
     46 CB         28.2338   29.9117    6.3089 C.3       7 UNK        -0.1927 
     47 C          29.5453   31.5411    4.8841 C.2       7 UNK         0.5013 
     48 O          28.8827   32.5553    4.6502 O.2       7 UNK        -0.5193 
     49 N          30.8544   31.5412    5.1422 N.am      8 UNK        -0.4253 
     50 CA         31.7342   32.7034    5.1748 C.3       8 UNK         0.0242 
     51 CB         32.1075   33.1166    3.7370 C.3       8 UNK        -0.2000 
     52 C          32.9798   32.3218    5.9823 C.2       8 UNK         0.4948 
     53 O          33.1689   31.1406    6.2876 O.2       8 UNK        -0.5275 
     54 N          33.8358   33.3113    6.2751 N.am      9 UNK        -0.4246 
     55 CA         35.0953   33.1495    7.0181 C.3       9 UNK         0.0261 
     56 CB         35.7742   34.5195    7.1762 C.3       9 UNK        -0.1959 
     57 C          36.0758   32.1317    6.4021 C.2       9 UNK         0.5033 
     58 O          36.8421   31.5094    7.1391 O.2       9 UNK        -0.5390 
     59 N          35.9964   31.9391    5.0772 N.am      10 UNK        -0.4215 
     60 CA         36.7177   30.9147    4.3168 C.3       10 UNK         0.0240 
     61 CB         36.4228   31.1021    2.8194 C.3       10 UNK        -0.1982 
     62 C          36.4010   29.4679    4.7462 C.2       10 UNK         0.4970 
     63 O          37.2470   28.5949    4.5476 O.2       10 UNK        -0.4916 
     64 N          35.2172   29.2372    5.3317 N.am      11 UNK        -0.4279 
     65 CA         34.8207   27.9511    5.9237 C.3       11 UNK         0.1003 
     66 C          35.4050   27.7084    7.3473 C.2       11 UNK         0.5709 
     67 N          36.1011   28.6569    7.9661 N.am      11 UNK        -0.7358 
     68 O          35.2360   26.6240    7.9000 O.2       11 UNK        -0.4999 
     69 C69        33.2809   27.7469    5.9030 C.3       12 UNK        -0.0954 
     70 S70        32.5598   27.8718    4.2323 S.3       12 UNK        -0.2268 
     71 C71        32.7995   26.1593    3.6419 C.3       12 UNK         0.0203 
     72 H72        29.8546   26.6095    4.8499 H         1 UNK         0.0888 
     73 H73        28.3866   27.3183    4.1764 H         1 UNK         0.0888 
     74 H74        29.6518   26.7365    3.0962 H         1 UNK         0.0888 
     75 H75        29.3937   24.6080    2.3255 H         1 UNK         0.3017 
     76 H76        28.0615   22.5600    3.8609 H         1 UNK         0.0873 
     77 H77        29.9312   21.9332    2.4680 H         1 UNK         0.0745 
     78 H78        28.5116   21.0993    1.9310 H         1 UNK         0.0745 
     79 H79        31.5242   22.1415    0.8343 H         1 UNK         0.0705 
     80 H80        31.3587   22.6735   -0.8123 H         1 UNK         0.0705 
     81 H81        31.9213   23.8059    2.6303 H         1 UNK         0.1334 
     82 H82        32.5762   27.8953    1.4768 H         1 UNK         0.1417 
     83 H83        31.0949   25.0719   -1.3772 H         1 UNK         0.1562 
     84 H84        31.8753   27.2632   -2.1122 H         1 UNK         0.0748 
     85 H85        32.6267   28.3654   -0.9881 H         1 UNK         0.0748 
     86 H86        28.9266   26.7222   -0.4139 H         1 UNK         0.0940 
     87 H87        29.3411   26.7440   -2.1034 H         1 UNK         0.0940 
     88 H88        27.6909   28.8263   -2.2819 H         1 UNK         0.0703 
     89 H89        25.9615   26.6487   -1.8428 H         1 UNK         0.3081 
     90 H90        25.0272   25.8843   -4.2393 H         1 UNK         0.0719 
     91 H91        27.4553   24.4463   -5.4621 H         1 UNK         0.0809 
     92 H92        25.7699   24.1447   -5.8796 H         1 UNK         0.0809 
     93 H93        26.5021   25.6890   -6.2633 H         1 UNK         0.0809 
     94 H94        26.7152   24.4280   -2.4347 H         1 UNK         0.2990 
     95 H95        24.2996   21.8758   -1.7897 H         1 UNK         0.0690 
     96 H96        26.4455   20.7280   -1.3002 H         1 UNK         0.0788 
     97 H97        27.3409   21.9560   -2.1920 H         1 UNK         0.0788 
     98 H98        26.2212   20.8943   -3.0340 H         1 UNK         0.0788 
     99 H99        26.3653   23.1011   -0.2016 H         1 UNK         0.2993 
    100 H100       24.9668   25.6578    1.0416 H         1 UNK         0.0949 
    101 H101       22.8837   24.9236    2.0931 H         1 UNK         0.0767 
    102 H102       23.6406   23.4652    2.7111 H         1 UNK         0.0767 
    103 H103       24.1285   25.0455    3.3236 H         1 UNK         0.0767 
    104 H104       26.9227   24.9998    1.7961 H         1 UNK         0.3013 
    105 H105       28.3090   29.6079    0.1541 H         1 UNK         0.3121 
    106 H106       26.2021   29.0633    2.1031 H         1 UNK         0.0774 
    107 H107       25.2680   31.0053    0.7925 H         1 UNK         0.0815 
    108 H108       26.7715   31.8958    1.0286 H         1 UNK         0.0815 
    109 H109       25.7449   31.5143    2.4043 H         1 UNK         0.0815 
    110 H110       26.8686   30.0007    4.2127 H         1 UNK         0.2987 
    111 H111       29.6170   29.4010    4.7464 H         1 UNK         0.0949 
    112 H112       27.4527   30.6379    6.5380 H         1 UNK         0.0806 
    113 H113       27.7968   28.9149    6.3709 H         1 UNK         0.0806 
    114 H114       28.9855   29.9831    7.0963 H         1 UNK         0.0806 
    115 H115       31.3258   30.6792    5.3929 H         1 UNK         0.3010 
    116 H116       31.2283   33.5263    5.6843 H         1 UNK         0.0829 
    117 H117       31.2219   33.3721    3.1548 H         1 UNK         0.0813 
    118 H118       32.7570   33.9924    3.7283 H         1 UNK         0.0813 
    119 H119       32.6282   32.3147    3.2115 H         1 UNK         0.0813 
    120 H120       33.6053   34.2509    5.9836 H         1 UNK         0.3038 
    121 H121       34.8369   32.7798    8.0127 H         1 UNK         0.0769 
    122 H122       36.0258   34.9603    6.2108 H         1 UNK         0.0811 
    123 H123       36.7009   34.4324    7.7457 H         1 UNK         0.0811 
    124 H124       35.1343   35.2216    7.7111 H         1 UNK         0.0811 
    125 H125       35.3381   32.5037    4.5612 H         1 UNK         0.3204 
    126 H126       37.7852   31.0754    4.4812 H         1 UNK         0.0748 
    127 H127       36.7233   32.0919    2.4748 H         1 UNK         0.0771 
    128 H128       36.9698   30.3732    2.2195 H         1 UNK         0.0771 
    129 H129       35.3620   30.9750    2.5981 H         1 UNK         0.0771 
    130 H130       34.5747   30.0054    5.4970 H         1 UNK         0.2980 
    131 H131       35.2486   27.1598    5.3059 H         1 UNK         0.0545 
    132 H132       36.4725   28.4693    8.8835 H         1 UNK         0.3459 
    133 H133       36.2682   29.5573    7.5327 H         1 UNK         0.3459 
    134 H134       33.0126   26.7749    6.3209 H         1 UNK         0.0616 
    135 H135       32.7931   28.4889    6.5367 H         1 UNK         0.0616 
    136 H136       32.3028   25.4861    4.3425 H         1 UNK         0.0634 
    137 H137       33.8627   25.9198    3.6764 H         1 UNK         0.0634 
@<TRIPOS>BOND
     1    1    2 1    
     2    1   72 1    
     3    1   73 1    
     4    1   74 1    
     5    2    3 2    
     6    2    4 am   BACKBONE|DICT|INTERRES
     7    4    5 1    
     8    4   75 1    
     9    5    6 1    
    10    5   35 1    
    11    5   76 1    
    12    6    7 1    
    13    6   77 1    
    14    6   78 1    
    15    7    8 1    
    16    8    9 1    
    17    8   79 1    
    18    8   80 1    
    19    9   10 ar   
    20    9   14 ar   
    21   10   11 ar   
    22   10   81 1    
    23   11   12 ar   
    24   11   71 1    
    25   12   13 ar   
    26   12   82 1    
    27   13   14 ar   
    28   13   15 1    
    29   14   83 1    
    30   15   16 1    
    31   15   84 1    
    32   15   85 1    
    33   16   17 1    
    34   17   18 1    
    35   17   86 1    
    36   17   87 1    
    37   18   19 1    
    38   18   37 1    
    39   18   88 1    
    40   19   20 am   BACKBONE|DICT|INTERRES
    41   19   89 1    
    42   20   21 2    
    43   20   22 1    
    44   22   23 1    
    45   22   24 1    
    46   22   90 1    
    47   23   91 1    
    48   23   92 1    
    49   23   93 1    
    50   24   25 am   BACKBONE|DICT|INTERRES
    51   24   94 1    
    52   25   26 2    
    53   25   27 1    
    54   27   28 1    
    55   27   29 1    
    56   27   95 1    
    57   28   96 1    
    58   28   97 1    
    59   28   98 1    
    60   29   30 am   BACKBONE|DICT|INTERRES
    61   29   99 1    
    62   30   31 2    
    63   30   32 1    
    64   32   33 1    
    65   32   34 1    
    66   32  100 1    
    67   33  101 1    
    68   33  102 1    
    69   33  103 1    
    70   34   35 am   BACKBONE|DICT|INTERRES
    71   34  104 1    
    72   35   36 2    
    73   37   38 2    
    74   37   39 am   BACKBONE|DICT|INTERRES
    75   39   40 1    
    76   39  105 1    
    77   40   41 1    
    78   40   42 1    
    79   40  106 1    
    80   41  107 1    
    81   41  108 1    
    82   41  109 1    
    83   42   43 2    
    84   42   44 am   BACKBONE|DICT|INTERRES
    85   44   45 1    
    86   44  110 1    
    87   45   46 1    
    88   45   47 1    
    89   45  111 1    
    90   46  112 1    
    91   46  113 1    
    92   46  114 1    
    93   47   48 2    
    94   47   49 am   BACKBONE|DICT|INTERRES
    95   49   50 1    
    96   49  115 1    
    97   50   51 1    
    98   50   52 1    
    99   50  116 1    
   100   51  117 1    
   101   51  118 1    
   102   51  119 1    
   103   52   53 2    
   104   52   54 am   BACKBONE|DICT|INTERRES
   105   54   55 1    
   106   54  120 1    
   107   55   56 1    
   108   55   57 1    
   109   55  121 1    
   110   56  122 1    
   111   56  123 1    
   112   56  124 1    
   113   57   58 2    
   114   57   59 am   BACKBONE|DICT|INTERRES
   115   59   60 1    
   116   59  125 1    
   117   60   61 1    
   118   60   62 1    
   119   60  126 1    
   120   61  127 1    
   121   61  128 1    
   122   61  129 1    
   123   62   63 2    
   124   62   64 am   BACKBONE|DICT|INTERRES
   125   64   65 1    
   126   64  130 1    
   127   65   66 1    
   128   65   69 1    
   129   65  131 1    
   130   66   67 am   BACKBONE|DICT|INTERRES
   131   66   68 2    
   132   67  132 1    
   133   67  133 1    
   134   69   70 1    
   135   69  134 1    
   136   69  135 1    
   137   70   71 1    
   138   71  136 1    
   139   71  137 1    
@<TRIPOS>SUBSTRUCTURE
     1 UNK         1 GROUP             0       ****    0 ROOT    
