@<TRIPOS>MOLECULE
3R136
137   139    1
SMALL
USER_CHARGES


@<TRIPOS>ATOM
      1 CA         28.2360   21.2400   -1.1688 C.3       0 UNK        -0.1979 
      2 C          29.0300   22.5074   -1.4478 C.2       0 UNK         0.4864 
      3 O          29.4038   22.7580   -2.5946 O.2       0 UNK        -0.5359 
      4 N          29.2867   23.3074   -0.4079 N.am      1 UNK        -0.4318 
      5 CA         29.9341   24.6145   -0.4972 C.3       1 UNK         0.0824 
      6 C6         30.6829   24.9728    0.8084 C.3       12 UNK        -0.0944 
      7 S7         32.1678   23.9445    1.0548 S.3       12 UNK        -0.2672 
      8 C8         31.5843   22.6829    2.2375 C.3       12 UNK         0.0333 
      9 C9         31.4901   23.1942    3.6715 C.ar      12 UNK        -0.0807 
     10 C10        32.6402   23.6187    4.3464 C.ar      12 UNK        -0.0894 
     11 C11        32.5670   24.0452    5.6760 C.ar      12 UNK        -0.0804 
     12 C12        31.3329   24.0373    6.3312 C.ar      12 UNK        -0.0824 
     13 C13        30.1742   23.6057    5.6801 C.ar      12 UNK        -0.0762 
     14 C14        30.2635   23.1831    4.3464 C.ar      12 UNK        -0.0782 
     15 C15        28.8736   23.5440    6.4841 C.3       12 UNK         0.0230 
     16 S16        27.3311   23.6352    5.5142 S.3       12 UNK        -0.2608 
     17 C17        27.3070   25.3822    4.9876 C.3       12 UNK        -0.0989 
     18 CA         27.5184   25.5473    3.4630 C.3       5 UNK         0.0716 
     19 N          26.4961   24.8722    2.6692 N.am      5 UNK        -0.4135 
     20 C          26.6622   23.7688    1.9323 C.2       4 UNK         0.5031 
     21 O          27.6774   23.0708    1.9254 O.2       4 UNK        -0.5229 
     22 CA         25.5082   23.4314    0.9840 C.3       4 UNK         0.0329 
     23 CB         24.2690   22.9922    1.7960 C.3       4 UNK        -0.2001 
     24 N          25.2494   24.6000    0.1350 N.am      4 UNK        -0.4303 
     25 C          24.2862   24.7349   -0.7871 C.2       3 UNK         0.5044 
     26 O          23.4745   23.8547   -1.0742 O.2       3 UNK        -0.5152 
     27 CA         24.2007   26.0888   -1.5176 C.3       3 UNK         0.0319 
     28 CB         23.2864   27.0545   -0.7464 C.3       3 UNK        -0.2001 
     29 N          25.5043   26.7231   -1.7235 N.am      3 UNK        -0.4354 
     30 C          26.4225   26.3032   -2.6041 C.2       2 UNK         0.4964 
     31 O          26.2458   25.3644   -3.3816 O.2       2 UNK        -0.5047 
     32 CA         27.7832   27.0288   -2.6113 C.3       2 UNK         0.0288 
     33 CB         27.7733   28.4124   -1.9168 C.3       2 UNK        -0.2113 
     34 N          28.8277   26.1628   -2.0512 N.am      2 UNK        -0.4145 
     35 C          28.8379   25.6431   -0.8151 C.2       1 UNK         0.5006 
     36 O          27.9999   25.9137    0.0466 O.2       1 UNK        -0.5103 
     37 C          27.4465   27.0268    3.0543 C.2       5 UNK         0.5055 
     38 O          26.3409   27.5360    2.8401 O.2       5 UNK        -0.5220 
     39 N          28.6032   27.6856    2.9511 N.am      6 UNK        -0.4450 
     40 CA         28.7289   29.0943    2.5842 C.3       6 UNK         0.0367 
     41 CB         29.8237   29.2301    1.5103 C.3       6 UNK        -0.1929 
     42 C          29.0699   29.9350    3.8234 C.2       6 UNK         0.5070 
     43 O          29.4476   29.3950    4.8657 O.2       6 UNK        -0.5237 
     44 N          28.9440   31.2560    3.6760 N.am      7 UNK        -0.4739 
     45 CA         29.2926   32.2539    4.6875 C.3       7 UNK         0.0276 
     46 CB         28.0480   32.6062    5.5260 C.3       7 UNK        -0.1927 
     47 C          29.9271   33.4683    3.9935 C.2       7 UNK         0.5013 
     48 O          29.5249   34.6063    4.2433 O.2       7 UNK        -0.5193 
     49 N          30.8802   33.1889    3.0960 N.am      8 UNK        -0.4253 
     50 CA         31.6175   34.1751    2.3078 C.3       8 UNK         0.0242 
     51 CB         31.5340   33.7743    0.8189 C.3       8 UNK        -0.2000 
     52 C          33.0534   34.2739    2.8521 C.2       8 UNK         0.4948 
     53 O          33.2390   34.3127    4.0702 O.2       8 UNK        -0.5275 
     54 N          34.0501   34.2895    1.9557 N.am      9 UNK        -0.4246 
     55 CA         35.4800   34.2633    2.2874 C.3       9 UNK         0.0261 
     56 CB         36.2915   34.6223    1.0312 C.3       9 UNK        -0.1959 
     57 C          35.9563   32.9166    2.8705 C.2       9 UNK         0.5033 
     58 O          37.0395   32.8654    3.4554 O.2       9 UNK        -0.5390 
     59 N          35.1516   31.8612    2.7043 N.am      10 UNK        -0.4215 
     60 CA         35.3508   30.5276    3.2548 C.3       10 UNK         0.0240 
     61 CB         36.0957   29.6541    2.2287 C.3       10 UNK        -0.1982 
     62 C          33.9804   29.9326    3.6034 C.2       10 UNK         0.4970 
     63 O          32.9514   30.4348    3.1382 O.2       10 UNK        -0.4916 
     64 N          34.0085   28.8630    4.4043 N.am      11 UNK        -0.4279 
     65 CA         32.8408   28.0612    4.7997 C.3       11 UNK         0.1003 
     66 C          32.2416   27.1785    3.6660 C.2       11 UNK         0.5709 
     67 N          32.9616   26.9286    2.5786 N.am      11 UNK        -0.7358 
     68 O          31.1047   26.7270    3.7686 O.2       11 UNK        -0.4999 
     69 C69        33.1535   27.2297    6.0722 C.3       12 UNK        -0.0954 
     70 S70        34.5265   26.0423    5.8310 S.3       12 UNK        -0.2268 
     71 C71        33.8215   24.4727    6.4284 C.3       12 UNK         0.0203 
     72 H72        28.0500   21.1037   -0.1034 H         1 UNK         0.0888 
     73 H73        27.2746   21.2802   -1.6800 H         1 UNK         0.0888 
     74 H74        28.7802   20.3681   -1.5306 H         1 UNK         0.0888 
     75 H75        28.8714   23.0971    0.4976 H         1 UNK         0.3017 
     76 H76        30.6601   24.6106   -1.3134 H         1 UNK         0.0873 
     77 H77        31.0013   26.0160    0.7820 H         1 UNK         0.0745 
     78 H78        30.0319   24.8789    1.6755 H         1 UNK         0.0745 
     79 H79        32.2809   21.8439    2.2160 H         1 UNK         0.0705 
     80 H80        30.6257   22.2874    1.8993 H         1 UNK         0.0705 
     81 H81        33.5937   23.6163    3.8362 H         1 UNK         0.1334 
     82 H82        31.2776   24.3498    7.3653 H         1 UNK         0.1417 
     83 H83        29.3820   22.8230    3.8355 H         1 UNK         0.1562 
     84 H84        28.8560   24.3371    7.2334 H         1 UNK         0.0748 
     85 H85        28.8671   22.6040    7.0371 H         1 UNK         0.0748 
     86 H86        28.0732   25.9358    5.5344 H         1 UNK         0.0940 
     87 H87        26.3494   25.8098    5.2916 H         1 UNK         0.0940 
     88 H88        28.5051   25.1661    3.2047 H         1 UNK         0.0703 
     89 H89        25.6508   25.4149    2.5540 H         1 UNK         0.3081 
     90 H90        25.8240   22.6071    0.3422 H         1 UNK         0.0719 
     91 H91        23.8124   23.8271    2.3282 H         1 UNK         0.0809 
     92 H92        23.5061   22.5451    1.1596 H         1 UNK         0.0809 
     93 H93        24.5358   22.2385    2.5386 H         1 UNK         0.0809 
     94 H94        25.9359   25.3444    0.2181 H         1 UNK         0.2990 
     95 H95        23.7517   25.9074   -2.4967 H         1 UNK         0.0690 
     96 H96        23.1465   27.9886   -1.2907 H         1 UNK         0.0788 
     97 H97        23.6904   27.2956    0.2379 H         1 UNK         0.0788 
     98 H98        22.2978   26.6183   -0.5951 H         1 UNK         0.0788 
     99 H99        25.7475   27.4866   -1.1087 H         1 UNK         0.2993 
    100 H100       28.0372   27.1893   -3.6604 H         1 UNK         0.0949 
    101 H101       27.0265   29.0695   -2.3645 H         1 UNK         0.0767 
    102 H102       27.5606   28.3496   -0.8492 H         1 UNK         0.0767 
    103 H103       28.7383   28.9074   -2.0261 H         1 UNK         0.0767 
    104 H104       29.5200   25.8357   -2.7113 H         1 UNK         0.3013 
    105 H105       29.4696   27.2332    3.2452 H         1 UNK         0.3121 
    106 H106       27.7899   29.4635    2.1663 H         1 UNK         0.0774 
    107 H107       29.8752   30.2488    1.1249 H         1 UNK         0.0815 
    108 H108       30.8106   28.9840    1.9013 H         1 UNK         0.0815 
    109 H109       29.6292   28.5738    0.6619 H         1 UNK         0.0815 
    110 H110       28.6413   31.6248    2.7840 H         1 UNK         0.2987 
    111 H111       30.0564   31.8519    5.3576 H         1 UNK         0.0949 
    112 H112       27.2554   33.0325    4.9100 H         1 UNK         0.0806 
    113 H113       27.6464   31.7252    6.0270 H         1 UNK         0.0806 
    114 H114       28.2907   33.3350    6.3005 H         1 UNK         0.0806 
    115 H115       31.1893   32.2285    3.0130 H         1 UNK         0.3010 
    116 H116       31.1702   35.1654    2.4166 H         1 UNK         0.0829 
    117 H117       31.9929   34.5251    0.1743 H         1 UNK         0.0813 
    118 H118       32.0184   32.8164    0.6234 H         1 UNK         0.0813 
    119 H119       30.4953   33.6847    0.4994 H         1 UNK         0.0813 
    120 H120       33.8132   34.2673    0.9739 H         1 UNK         0.3038 
    121 H121       35.6663   35.0274    3.0452 H         1 UNK         0.0769 
    122 H122       37.3599   34.6479    1.2508 H         1 UNK         0.0811 
    123 H123       36.0189   35.6063    0.6490 H         1 UNK         0.0811 
    124 H124       36.1416   33.8959    0.2314 H         1 UNK         0.0811 
    125 H125       34.2467   31.9979    2.2737 H         1 UNK         0.3204 
    126 H126       35.9358   30.5950    4.1749 H         1 UNK         0.0748 
    127 H127       36.2848   28.6543    2.6212 H         1 UNK         0.0771 
    128 H128       35.5252   29.5428    1.3055 H         1 UNK         0.0771 
    129 H129       37.0634   30.0859    1.9720 H         1 UNK         0.0771 
    130 H130       34.8984   28.5114    4.7262 H         1 UNK         0.2980 
    131 H131       32.0537   28.7672    5.0687 H         1 UNK         0.0545 
    132 H132       33.8992   27.2820    2.4924 H         1 UNK         0.3459 
    133 H133       32.5867   26.3046    1.8824 H         1 UNK         0.3459 
    134 H134       33.4307   27.8987    6.8880 H         1 UNK         0.0616 
    135 H135       32.2568   26.7127    6.4153 H         1 UNK         0.0616 
    136 H136       33.6204   24.5660    7.4968 H         1 UNK         0.0634 
    137 H137       34.5772   23.6924    6.3296 H         1 UNK         0.0634 
@<TRIPOS>BOND
     1    1    2 1    
     2    1   72 1    
     3    1   73 1    
     4    1   74 1    
     5    2    3 2    
     6    2    4 am   BACKBONE|DICT|INTERRES
     7    4    5 1    
     8    4   75 1    
     9    5    6 1    
    10    5   35 1    
    11    5   76 1    
    12    6    7 1    
    13    6   77 1    
    14    6   78 1    
    15    7    8 1    
    16    8    9 1    
    17    8   79 1    
    18    8   80 1    
    19    9   10 ar   
    20    9   14 ar   
    21   10   11 ar   
    22   10   81 1    
    23   11   12 ar   
    24   11   71 1    
    25   12   13 ar   
    26   12   82 1    
    27   13   14 ar   
    28   13   15 1    
    29   14   83 1    
    30   15   16 1    
    31   15   84 1    
    32   15   85 1    
    33   16   17 1    
    34   17   18 1    
    35   17   86 1    
    36   17   87 1    
    37   18   19 1    
    38   18   37 1    
    39   18   88 1    
    40   19   20 am   BACKBONE|DICT|INTERRES
    41   19   89 1    
    42   20   21 2    
    43   20   22 1    
    44   22   23 1    
    45   22   24 1    
    46   22   90 1    
    47   23   91 1    
    48   23   92 1    
    49   23   93 1    
    50   24   25 am   BACKBONE|DICT|INTERRES
    51   24   94 1    
    52   25   26 2    
    53   25   27 1    
    54   27   28 1    
    55   27   29 1    
    56   27   95 1    
    57   28   96 1    
    58   28   97 1    
    59   28   98 1    
    60   29   30 am   BACKBONE|DICT|INTERRES
    61   29   99 1    
    62   30   31 2    
    63   30   32 1    
    64   32   33 1    
    65   32   34 1    
    66   32  100 1    
    67   33  101 1    
    68   33  102 1    
    69   33  103 1    
    70   34   35 am   BACKBONE|DICT|INTERRES
    71   34  104 1    
    72   35   36 2    
    73   37   38 2    
    74   37   39 am   BACKBONE|DICT|INTERRES
    75   39   40 1    
    76   39  105 1    
    77   40   41 1    
    78   40   42 1    
    79   40  106 1    
    80   41  107 1    
    81   41  108 1    
    82   41  109 1    
    83   42   43 2    
    84   42   44 am   BACKBONE|DICT|INTERRES
    85   44   45 1    
    86   44  110 1    
    87   45   46 1    
    88   45   47 1    
    89   45  111 1    
    90   46  112 1    
    91   46  113 1    
    92   46  114 1    
    93   47   48 2    
    94   47   49 am   BACKBONE|DICT|INTERRES
    95   49   50 1    
    96   49  115 1    
    97   50   51 1    
    98   50   52 1    
    99   50  116 1    
   100   51  117 1    
   101   51  118 1    
   102   51  119 1    
   103   52   53 2    
   104   52   54 am   BACKBONE|DICT|INTERRES
   105   54   55 1    
   106   54  120 1    
   107   55   56 1    
   108   55   57 1    
   109   55  121 1    
   110   56  122 1    
   111   56  123 1    
   112   56  124 1    
   113   57   58 2    
   114   57   59 am   BACKBONE|DICT|INTERRES
   115   59   60 1    
   116   59  125 1    
   117   60   61 1    
   118   60   62 1    
   119   60  126 1    
   120   61  127 1    
   121   61  128 1    
   122   61  129 1    
   123   62   63 2    
   124   62   64 am   BACKBONE|DICT|INTERRES
   125   64   65 1    
   126   64  130 1    
   127   65   66 1    
   128   65   69 1    
   129   65  131 1    
   130   66   67 am   BACKBONE|DICT|INTERRES
   131   66   68 2    
   132   67  132 1    
   133   67  133 1    
   134   69   70 1    
   135   69  134 1    
   136   69  135 1    
   137   70   71 1    
   138   71  136 1    
   139   71  137 1    
@<TRIPOS>SUBSTRUCTURE
     1 UNK         1 GROUP             0       ****    0 ROOT    
