@<TRIPOS>MOLECULE
3R136
137   139    1
SMALL
USER_CHARGES


@<TRIPOS>ATOM
      1 CA         31.0199   22.2628   -1.9467 C.3       0 UNK        -0.1979 
      2 C          29.9834   22.4941   -0.8585 C.2       0 UNK         0.4864 
      3 O          29.3087   23.5267   -0.8711 O.2       0 UNK        -0.5359 
      4 N          29.8485   21.5459    0.0798 N.am      1 UNK        -0.4318 
      5 CA         28.9176   21.6085    1.2116 C.3       1 UNK         0.0824 
      6 C6         29.0628   20.4094    2.1832 C.3       12 UNK        -0.0944 
      7 S7         30.7650   20.1447    2.7899 S.3       12 UNK        -0.2672 
      8 C8         30.7512   20.9944    4.4025 C.3       12 UNK         0.0333 
      9 C9         31.0222   22.4825    4.2438 C.ar      12 UNK        -0.0807 
     10 C10        32.3353   22.9387    4.0943 C.ar      12 UNK        -0.0894 
     11 C11        32.5979   24.2993    3.9127 C.ar      12 UNK        -0.0804 
     12 C12        31.5350   25.2068    3.8713 C.ar      12 UNK        -0.0824 
     13 C13        30.2179   24.7630    4.0278 C.ar      12 UNK        -0.0762 
     14 C14        29.9690   23.4016    4.2334 C.ar      12 UNK        -0.0782 
     15 C15        29.0622   25.7482    3.9423 C.3       12 UNK         0.0230 
     16 S16        28.0995   25.4498    2.4309 S.3       12 UNK        -0.2608 
     17 C17        27.1540   26.9982    2.2557 C.3       12 UNK        -0.0989 
     18 CA         27.8383   27.9856    1.2776 C.3       5 UNK         0.0716 
     19 N          28.1567   27.3550   -0.0051 N.am      5 UNK        -0.4135 
     20 C          28.9577   27.8606   -0.9509 C.2       4 UNK         0.5031 
     21 O          29.4940   28.9672   -0.8748 O.2       4 UNK        -0.5229 
     22 CA         29.2529   26.9685   -2.1711 C.3       4 UNK         0.0329 
     23 CB         30.7193   26.5037   -2.1481 C.3       4 UNK        -0.2001 
     24 N          28.3943   25.7822   -2.2346 N.am      4 UNK        -0.4303 
     25 C          27.2039   25.7295   -2.8468 C.2       3 UNK         0.5044 
     26 O          26.6893   26.6838   -3.4301 O.2       3 UNK        -0.5152 
     27 CA         26.4545   24.3919   -2.7843 C.3       3 UNK         0.0319 
     28 CB         27.1157   23.3492   -3.7020 C.3       3 UNK        -0.2001 
     29 N          26.4142   23.8826   -1.4111 N.am      3 UNK        -0.4354 
     30 C          25.2993   23.7430   -0.6782 C.2       2 UNK         0.4964 
     31 O          24.1747   24.0172   -1.1000 O.2       2 UNK        -0.5047 
     32 CA         25.4372   23.2483    0.7784 C.3       2 UNK         0.0288 
     33 CB         24.3784   22.1842    1.1403 C.3       2 UNK        -0.2113 
     34 N          26.7877   22.8097    1.1532 N.am      2 UNK        -0.4145 
     35 C          27.4594   21.7325    0.7235 C.2       1 UNK         0.5006 
     36 O          27.0001   20.8803   -0.0404 O.2       1 UNK        -0.5103 
     37 C          26.9810   29.2522    1.0887 C.2       5 UNK         0.5055 
     38 O          26.1009   29.2805    0.2246 O.2       5 UNK        -0.5220 
     39 N          27.2384   30.2579    1.9279 N.am      6 UNK        -0.4450 
     40 CA         26.5970   31.5673    1.9660 C.3       6 UNK         0.0367 
     41 CB         27.0079   32.4082    0.7381 C.3       6 UNK        -0.1929 
     42 C          27.0208   32.2450    3.2773 C.2       6 UNK         0.5070 
     43 O          27.8219   31.6776    4.0292 O.2       6 UNK        -0.5237 
     44 N          26.4929   33.4491    3.5303 N.am      7 UNK        -0.4739 
     45 CA         26.8408   34.2855    4.6822 C.3       7 UNK         0.0276 
     46 CB         25.9844   35.5628    4.6645 C.3       7 UNK        -0.1927 
     47 C          28.3423   34.6272    4.7007 C.2       7 UNK         0.5013 
     48 O          28.8298   35.2609    3.7622 O.2       7 UNK        -0.5193 
     49 N          29.0338   34.1713    5.7548 N.am      8 UNK        -0.4253 
     50 CA         30.4773   34.2964    5.9957 C.3       8 UNK         0.0242 
     51 CB         30.8836   35.7758    6.1749 C.3       8 UNK        -0.2000 
     52 C          31.3636   33.5569    4.9695 C.2       8 UNK         0.4948 
     53 O          32.5320   33.9195    4.8105 O.2       8 UNK        -0.5275 
     54 N          30.8319   32.5133    4.3128 N.am      9 UNK        -0.4246 
     55 CA         31.5715   31.6522    3.3831 C.3       9 UNK         0.0261 
     56 CB         30.5823   30.9333    2.4494 C.3       9 UNK        -0.1959 
     57 C          32.4796   30.6620    4.1371 C.2       9 UNK         0.5033 
     58 O          32.1861   29.4651    4.1852 O.2       9 UNK        -0.5390 
     59 N          33.5545   31.1881    4.7370 N.am      10 UNK        -0.4215 
     60 CA         34.5935   30.4239    5.4294 C.3       10 UNK         0.0240 
     61 CB         35.5455   31.3968    6.1437 C.3       10 UNK        -0.1982 
     62 C          35.3713   29.5168    4.4605 C.2       10 UNK         0.4970 
     63 O          35.6464   29.9253    3.3290 O.2       10 UNK        -0.4916 
     64 N          35.7090   28.3111    4.9279 N.am      11 UNK        -0.4279 
     65 CA         36.4198   27.2818    4.1569 C.3       11 UNK         0.1003 
     66 C          37.8859   27.6750    3.8266 C.2       11 UNK         0.5709 
     67 N          38.4072   27.2297    2.6913 N.am      11 UNK        -0.7358 
     68 O          38.5652   28.3412    4.6063 O.2       11 UNK        -0.4999 
     69 C69        36.3672   25.8974    4.8574 C.3       12 UNK        -0.0954 
     70 S70        34.6841   25.3839    5.3403 S.3       12 UNK        -0.2268 
     71 C71        34.0284   24.7884    3.7538 C.3       12 UNK         0.0203 
     72 H72        31.5751   21.3381   -1.7906 H         1 UNK         0.0888 
     73 H73        30.5352   22.2091   -2.9209 H         1 UNK         0.0888 
     74 H74        31.7317   23.0876   -1.9648 H         1 UNK         0.0888 
     75 H75        30.4221   20.7159    0.0391 H         1 UNK         0.3017 
     76 H76        29.1733   22.5166    1.7590 H         1 UNK         0.0873 
     77 H77        28.7508   19.4864    1.6901 H         1 UNK         0.0745 
     78 H78        28.3943   20.5292    3.0378 H         1 UNK         0.0745 
     79 H79        31.5232   20.5533    5.0349 H         1 UNK         0.0705 
     80 H80        29.8052   20.8192    4.9168 H         1 UNK         0.0705 
     81 H81        33.1530   22.2308    4.1109 H         1 UNK         0.1334 
     82 H82        31.7367   26.2590    3.7177 H         1 UNK         0.1417 
     83 H83        28.9507   23.0561    4.3498 H         1 UNK         0.1562 
     84 H84        29.4324   26.7749    3.9422 H         1 UNK         0.0748 
     85 H85        28.4173   25.6450    4.8161 H         1 UNK         0.0748 
     86 H86        27.0188   27.4534    3.2390 H         1 UNK         0.0940 
     87 H87        26.1535   26.7404    1.9019 H         1 UNK         0.0940 
     88 H88        28.7908   28.2873    1.7196 H         1 UNK         0.0703 
     89 H89        27.7649   26.4393   -0.1576 H         1 UNK         0.3081 
     90 H90        29.1017   27.5762   -3.0658 H         1 UNK         0.0719 
     91 H91        31.4011   27.3552   -2.1402 H         1 UNK         0.0809 
     92 H92        30.9368   25.9025   -1.2640 H         1 UNK         0.0809 
     93 H93        30.9594   25.9051   -3.0269 H         1 UNK         0.0809 
     94 H94        28.7522   24.9451   -1.7737 H         1 UNK         0.2990 
     95 H95        25.4443   24.5680   -3.1594 H         1 UNK         0.0690 
     96 H96        28.1374   23.1234   -3.3966 H         1 UNK         0.0788 
     97 H97        27.1537   23.7050   -4.7324 H         1 UNK         0.0788 
     98 H98        26.5549   22.4144   -3.7020 H         1 UNK         0.0788 
     99 H99        27.3089   23.6404   -0.9971 H         1 UNK         0.2993 
    100 H100       25.2361   24.1237    1.3979 H         1 UNK         0.0949 
    101 H101       24.4494   21.3044    0.5003 H         1 UNK         0.0767 
    102 H102       24.4813   21.8574    2.1750 H         1 UNK         0.0767 
    103 H103       23.3692   22.5826    1.0279 H         1 UNK         0.0767 
    104 H104       27.2868   23.4673    1.7418 H         1 UNK         0.3013 
    105 H105       27.9181   30.1433    2.6712 H         1 UNK         0.3121 
    106 H106       25.5137   31.4318    1.9809 H         1 UNK         0.0774 
    107 H107       26.5179   33.3821    0.7403 H         1 UNK         0.0815 
    108 H108       28.0833   32.5854    0.7121 H         1 UNK         0.0815 
    109 H109       26.7302   31.9192   -0.1955 H         1 UNK         0.0815 
    110 H110       25.8613   33.8544    2.8546 H         1 UNK         0.2987 
    111 H111       26.5916   33.7240    5.5855 H         1 UNK         0.0949 
    112 H112       24.9206   35.3299    4.7152 H         1 UNK         0.0806 
    113 H113       26.2167   36.1990    5.5197 H         1 UNK         0.0806 
    114 H114       26.1572   36.1533    3.7637 H         1 UNK         0.0806 
    115 H115       28.5300   33.6358    6.4491 H         1 UNK         0.3010 
    116 H116       30.6614   33.7957    6.9474 H         1 UNK         0.0829 
    117 H117       30.2585   36.2730    6.9166 H         1 UNK         0.0813 
    118 H118       31.9160   35.8606    6.5164 H         1 UNK         0.0813 
    119 H119       30.8059   36.3336    5.2412 H         1 UNK         0.0813 
    120 H120       29.8638   32.2651    4.4854 H         1 UNK         0.3038 
    121 H121       32.2122   32.2783    2.7579 H         1 UNK         0.0769 
    122 H122       31.1098   30.3250    1.7133 H         1 UNK         0.0811 
    123 H123       29.9678   31.6449    1.8994 H         1 UNK         0.0811 
    124 H124       29.9221   30.2682    3.0054 H         1 UNK         0.0811 
    125 H125       33.6734   32.1943    4.6821 H         1 UNK         0.3204 
    126 H126       34.1025   29.8011    6.1803 H         1 UNK         0.0748 
    127 H127       36.3183   30.8560    6.6919 H         1 UNK         0.0771 
    128 H128       36.0495   32.0583    5.4376 H         1 UNK         0.0771 
    129 H129       35.0123   32.0180    6.8638 H         1 UNK         0.0771 
    130 H130       35.4625   28.0580    5.8729 H         1 UNK         0.2980 
    131 H131       35.8914   27.1902    3.2061 H         1 UNK         0.0545 
    132 H132       39.3624   27.4620    2.4678 H         1 UNK         0.3459 
    133 H133       37.8650   26.6722    2.0498 H         1 UNK         0.3459 
    134 H134       36.7960   25.1254    4.2158 H         1 UNK         0.0616 
    135 H135       36.9761   25.9099    5.7634 H         1 UNK         0.0616 
    136 H136       34.0628   25.5930    3.0181 H         1 UNK         0.0634 
    137 H137       34.6658   23.9888    3.3731 H         1 UNK         0.0634 
@<TRIPOS>BOND
     1    1    2 1    
     2    1   72 1    
     3    1   73 1    
     4    1   74 1    
     5    2    3 2    
     6    2    4 am   BACKBONE|DICT|INTERRES
     7    4    5 1    
     8    4   75 1    
     9    5    6 1    
    10    5   35 1    
    11    5   76 1    
    12    6    7 1    
    13    6   77 1    
    14    6   78 1    
    15    7    8 1    
    16    8    9 1    
    17    8   79 1    
    18    8   80 1    
    19    9   10 ar   
    20    9   14 ar   
    21   10   11 ar   
    22   10   81 1    
    23   11   12 ar   
    24   11   71 1    
    25   12   13 ar   
    26   12   82 1    
    27   13   14 ar   
    28   13   15 1    
    29   14   83 1    
    30   15   16 1    
    31   15   84 1    
    32   15   85 1    
    33   16   17 1    
    34   17   18 1    
    35   17   86 1    
    36   17   87 1    
    37   18   19 1    
    38   18   37 1    
    39   18   88 1    
    40   19   20 am   BACKBONE|DICT|INTERRES
    41   19   89 1    
    42   20   21 2    
    43   20   22 1    
    44   22   23 1    
    45   22   24 1    
    46   22   90 1    
    47   23   91 1    
    48   23   92 1    
    49   23   93 1    
    50   24   25 am   BACKBONE|DICT|INTERRES
    51   24   94 1    
    52   25   26 2    
    53   25   27 1    
    54   27   28 1    
    55   27   29 1    
    56   27   95 1    
    57   28   96 1    
    58   28   97 1    
    59   28   98 1    
    60   29   30 am   BACKBONE|DICT|INTERRES
    61   29   99 1    
    62   30   31 2    
    63   30   32 1    
    64   32   33 1    
    65   32   34 1    
    66   32  100 1    
    67   33  101 1    
    68   33  102 1    
    69   33  103 1    
    70   34   35 am   BACKBONE|DICT|INTERRES
    71   34  104 1    
    72   35   36 2    
    73   37   38 2    
    74   37   39 am   BACKBONE|DICT|INTERRES
    75   39   40 1    
    76   39  105 1    
    77   40   41 1    
    78   40   42 1    
    79   40  106 1    
    80   41  107 1    
    81   41  108 1    
    82   41  109 1    
    83   42   43 2    
    84   42   44 am   BACKBONE|DICT|INTERRES
    85   44   45 1    
    86   44  110 1    
    87   45   46 1    
    88   45   47 1    
    89   45  111 1    
    90   46  112 1    
    91   46  113 1    
    92   46  114 1    
    93   47   48 2    
    94   47   49 am   BACKBONE|DICT|INTERRES
    95   49   50 1    
    96   49  115 1    
    97   50   51 1    
    98   50   52 1    
    99   50  116 1    
   100   51  117 1    
   101   51  118 1    
   102   51  119 1    
   103   52   53 2    
   104   52   54 am   BACKBONE|DICT|INTERRES
   105   54   55 1    
   106   54  120 1    
   107   55   56 1    
   108   55   57 1    
   109   55  121 1    
   110   56  122 1    
   111   56  123 1    
   112   56  124 1    
   113   57   58 2    
   114   57   59 am   BACKBONE|DICT|INTERRES
   115   59   60 1    
   116   59  125 1    
   117   60   61 1    
   118   60   62 1    
   119   60  126 1    
   120   61  127 1    
   121   61  128 1    
   122   61  129 1    
   123   62   63 2    
   124   62   64 am   BACKBONE|DICT|INTERRES
   125   64   65 1    
   126   64  130 1    
   127   65   66 1    
   128   65   69 1    
   129   65  131 1    
   130   66   67 am   BACKBONE|DICT|INTERRES
   131   66   68 2    
   132   67  132 1    
   133   67  133 1    
   134   69   70 1    
   135   69  134 1    
   136   69  135 1    
   137   70   71 1    
   138   71  136 1    
   139   71  137 1    
@<TRIPOS>SUBSTRUCTURE
     1 UNK         1 GROUP             0       ****    0 ROOT    
