@<TRIPOS>MOLECULE
3R136
137   139    1
SMALL
USER_CHARGES


@<TRIPOS>ATOM
      1 CA         24.9754   26.9452    4.3082 C.3       0 UNK        -0.1979 
      2 C          25.5245   25.5815    3.9193 C.2       0 UNK         0.4864 
      3 O          25.2795   24.6003    4.6234 O.2       0 UNK        -0.5359 
      4 N          26.2604   25.5128    2.8042 N.am      1 UNK        -0.4318 
      5 CA         26.7597   24.2720    2.2078 C.3       1 UNK         0.0824 
      6 C6         28.0028   24.5702    1.3284 C.3       12 UNK        -0.0944 
      7 S7         29.0413   23.1071    0.9830 S.3       12 UNK        -0.2672 
      8 C8         30.3064   23.2051    2.3013 C.3       12 UNK         0.0333 
      9 C9         31.3106   24.3579    2.2025 C.ar      12 UNK        -0.0807 
     10 C10        32.1934   24.5581    3.2694 C.ar      12 UNK        -0.0894 
     11 C11        33.1275   25.5975    3.2410 C.ar      12 UNK        -0.0804 
     12 C12        33.1527   26.4716    2.1509 C.ar      12 UNK        -0.0824 
     13 C13        32.2776   26.2897    1.0776 C.ar      12 UNK        -0.0762 
     14 C14        31.3880   25.2116    1.0937 C.ar      12 UNK        -0.0782 
     15 C15        32.2992   27.2562   -0.0983 C.3       12 UNK         0.0230 
     16 S16        31.0013   28.5273    0.0534 S.3       12 UNK        -0.2608 
     17 C17        29.5685   27.6478   -0.6518 C.3       12 UNK        -0.0989 
     18 CA         28.2809   28.5043   -0.7001 C.3       5 UNK         0.0716 
     19 N          27.2912   27.9162   -1.5949 N.am      5 UNK        -0.4135 
     20 C          27.2341   28.0832   -2.9195 C.2       4 UNK         0.5031 
     21 O          28.0165   28.7951   -3.5525 O.2       4 UNK        -0.5229 
     22 CA         26.1432   27.2833   -3.6629 C.3       4 UNK         0.0329 
     23 CB         25.9338   27.7726   -5.1084 C.3       4 UNK        -0.2001 
     24 N          26.4585   25.8511   -3.6871 N.am      4 UNK        -0.4303 
     25 C          26.3582   25.0327   -2.6327 C.2       3 UNK         0.5044 
     26 O          25.9180   25.3970   -1.5401 O.2       3 UNK        -0.5152 
     27 CA         26.8862   23.5980   -2.8194 C.3       3 UNK         0.0319 
     28 CB         28.4181   23.6047   -2.9713 C.3       3 UNK        -0.2001 
     29 N          26.5461   22.7640   -1.6674 N.am      3 UNK        -0.4354 
     30 C          25.3488   22.2069   -1.4346 C.2       2 UNK         0.4964 
     31 O          24.4344   22.1695   -2.2589 O.2       2 UNK        -0.5047 
     32 CA         25.1323   21.6085   -0.0297 C.3       2 UNK         0.0288 
     33 CB         25.5064   20.1176   -0.0104 C.3       2 UNK        -0.2113 
     34 N          25.9099   22.3190    0.9913 N.am      2 UNK        -0.4145 
     35 C          25.6387   23.5634    1.4106 C.2       1 UNK         0.5006 
     36 O          24.5806   24.1467    1.1555 O.2       1 UNK        -0.5103 
     37 C          27.6354   28.6520    0.6872 C.2       5 UNK         0.5055 
     38 O          26.8452   27.7940    1.0927 O.2       5 UNK        -0.5220 
     39 N          27.9970   29.7290    1.3948 N.am      6 UNK        -0.4450 
     40 CA         27.4788   30.0641    2.7232 C.3       6 UNK         0.0367 
     41 CB         27.7640   31.5477    3.0119 C.3       6 UNK        -0.1929 
     42 C          28.0447   29.1901    3.8557 C.2       6 UNK         0.5070 
     43 O          27.4159   29.1190    4.9107 O.2       6 UNK        -0.5237 
     44 N          29.2200   28.5764    3.6354 N.am      7 UNK        -0.4739 
     45 CA         29.9909   27.7784    4.6038 C.3       7 UNK         0.0276 
     46 CB         29.2886   26.4341    4.8886 C.3       7 UNK        -0.1927 
     47 C          30.3308   28.5621    5.8924 C.2       7 UNK         0.5013 
     48 O          30.2339   28.0204    6.9959 O.2       7 UNK        -0.5193 
     49 N          30.6954   29.8380    5.7147 N.am      8 UNK        -0.4253 
     50 CA         31.0224   30.7913    6.7727 C.3       8 UNK         0.0242 
     51 CB         29.9142   31.8639    6.8403 C.3       8 UNK        -0.2000 
     52 C          32.4295   31.3438    6.5030 C.2       8 UNK         0.4948 
     53 O          33.3838   30.5662    6.5060 O.2       8 UNK        -0.5275 
     54 N          32.5495   32.6537    6.2344 N.am      9 UNK        -0.4246 
     55 CA         33.8093   33.3512    5.9317 C.3       9 UNK         0.0261 
     56 CB         33.5267   34.8486    5.7301 C.3       9 UNK        -0.1959 
     57 C          34.5787   32.7813    4.7237 C.2       9 UNK         0.5033 
     58 O          35.8073   32.8677    4.6928 O.2       9 UNK        -0.5390 
     59 N          33.8500   32.1593    3.7850 N.am      10 UNK        -0.4215 
     60 CA         34.3749   31.4016    2.6455 C.3       10 UNK         0.0240 
     61 CB         33.1961   30.8964    1.7971 C.3       10 UNK        -0.1982 
     62 C          35.2904   30.2225    3.0316 C.2       10 UNK         0.4970 
     63 O          36.1143   29.8215    2.2089 O.2       10 UNK        -0.4916 
     64 N          35.1462   29.6956    4.2560 N.am      11 UNK        -0.4279 
     65 CA         36.0193   28.6547    4.8182 C.3       11 UNK         0.1003 
     66 C          37.3943   29.1857    5.3205 C.2       11 UNK         0.5709 
     67 N          37.6394   30.4915    5.3650 N.am      11 UNK        -0.7358 
     68 O          38.2657   28.3917    5.6672 O.2       11 UNK        -0.4999 
     69 C69        35.3079   27.8161    5.9165 C.3       12 UNK        -0.0954 
     70 S70        33.6688   27.1969    5.4120 S.3       12 UNK        -0.2268 
     71 C71        34.1216   25.7771    4.3765 C.3       12 UNK         0.0203 
     72 H72        25.3941   27.2595    5.2639 H         1 UNK         0.0888 
     73 H73        25.2162   27.7049    3.5646 H         1 UNK         0.0888 
     74 H74        23.8912   26.9004    4.4069 H         1 UNK         0.0888 
     75 H75        26.3930   26.3480    2.2371 H         1 UNK         0.3017 
     76 H76        27.0628   23.6078    3.0204 H         1 UNK         0.0873 
     77 H77        27.7052   25.0186    0.3795 H         1 UNK         0.0745 
     78 H78        28.6280   25.3210    1.8110 H         1 UNK         0.0745 
     79 H79        30.8634   22.2673    2.3008 H         1 UNK         0.0705 
     80 H80        29.7945   23.2583    3.2635 H         1 UNK         0.0705 
     81 H81        32.1593   23.8948    4.1232 H         1 UNK         0.1334 
     82 H82        33.8576   27.2923    2.1406 H         1 UNK         0.1417 
     83 H83        30.7476   25.0527    0.2402 H         1 UNK         0.1562 
     84 H84        32.1875   26.7139   -1.0384 H         1 UNK         0.0748 
     85 H85        33.2678   27.7559   -0.1522 H         1 UNK         0.0748 
     86 H86        29.3850   26.7305   -0.0965 H         1 UNK         0.0940 
     87 H87        29.8465   27.3389   -1.6610 H         1 UNK         0.0940 
     88 H88        28.5232   29.5022   -1.0731 H         1 UNK         0.0703 
     89 H89        26.6297   27.2842   -1.1503 H         1 UNK         0.3081 
     90 H90        25.2036   27.4291   -3.1252 H         1 UNK         0.0719 
     91 H91        25.6891   28.8355   -5.1283 H         1 UNK         0.0809 
     92 H92        26.8270   27.6324   -5.7187 H         1 UNK         0.0809 
     93 H93        25.1116   27.2438   -5.5908 H         1 UNK         0.0809 
     94 H94        26.8576   25.4937   -4.5434 H         1 UNK         0.2990 
     95 H95        26.4360   23.1726   -3.7187 H         1 UNK         0.0690 
     96 H96        28.8104   22.5923   -3.0711 H         1 UNK         0.0788 
     97 H97        28.9073   24.0685   -2.1133 H         1 UNK         0.0788 
     98 H98        28.7282   24.1560   -3.8597 H         1 UNK         0.0788 
     99 H99        27.2176   22.7650   -0.9136 H         1 UNK         0.2993 
    100 H100       24.0712   21.7027    0.2122 H         1 UNK         0.0949 
    101 H101       26.5614   19.9612   -0.2396 H         1 UNK         0.0767 
    102 H102       25.3038   19.6708    0.9633 H         1 UNK         0.0767 
    103 H103       24.9261   19.5615   -0.7481 H         1 UNK         0.0767 
    104 H104       26.7974   21.9105    1.2519 H         1 UNK         0.3013 
    105 H105       28.6663   30.3706    0.9930 H         1 UNK         0.3121 
    106 H106       26.3959   29.9215    2.7136 H         1 UNK         0.0774 
    107 H107       27.3700   31.8385    3.9871 H         1 UNK         0.0815 
    108 H108       28.8333   31.7622    3.0170 H         1 UNK         0.0815 
    109 H109       27.2940   32.1943    2.2707 H         1 UNK         0.0815 
    110 H110       29.6456   28.6948    2.7263 H         1 UNK         0.2987 
    111 H111       30.9445   27.5512    4.1247 H         1 UNK         0.0949 
    112 H112       29.1035   25.8816    3.9700 H         1 UNK         0.0806 
    113 H113       29.9073   25.7987    5.5233 H         1 UNK         0.0806 
    114 H114       28.3337   26.5739    5.3960 H         1 UNK         0.0806 
    115 H115       30.7695   30.1766    4.7674 H         1 UNK         0.3010 
    116 H116       31.0703   30.2878    7.7405 H         1 UNK         0.0829 
    117 H117       28.9519   31.4070    7.0736 H         1 UNK         0.0813 
    118 H118       30.1143   32.5948    7.6252 H         1 UNK         0.0813 
    119 H119       29.7962   32.3995    5.8975 H         1 UNK         0.0813 
    120 H120       31.7149   33.2222    6.2567 H         1 UNK         0.3038 
    121 H121       34.4574   33.2398    6.8035 H         1 UNK         0.0769 
    122 H122       34.4487   35.3957    5.5275 H         1 UNK         0.0811 
    123 H123       33.0796   35.2926    6.6198 H         1 UNK         0.0811 
    124 H124       32.8530   35.0241    4.8905 H         1 UNK         0.0811 
    125 H125       32.8481   32.1635    3.8987 H         1 UNK         0.3204 
    126 H126       34.9688   32.0896    2.0406 H         1 UNK         0.0748 
    127 H127       33.5515   30.3630    0.9141 H         1 UNK         0.0771 
    128 H128       32.5613   30.2074    2.3560 H         1 UNK         0.0771 
    129 H129       32.5740   31.7192    1.4444 H         1 UNK         0.0771 
    130 H130       34.4560   30.0739    4.8972 H         1 UNK         0.2980 
    131 H131       36.2620   27.9678    4.0061 H         1 UNK         0.0545 
    132 H132       38.5388   30.8097    5.6886 H         1 UNK         0.3459 
    133 H133       36.9400   31.1678    5.0814 H         1 UNK         0.3459 
    134 H134       35.9237   26.9655    6.2145 H         1 UNK         0.0616 
    135 H135       35.1659   28.4188    6.8153 H         1 UNK         0.0616 
    136 H136       35.1174   25.9155    3.9547 H         1 UNK         0.0634 
    137 H137       34.1734   24.8832    4.9999 H         1 UNK         0.0634 
@<TRIPOS>BOND
     1    1    2 1    
     2    1   72 1    
     3    1   73 1    
     4    1   74 1    
     5    2    3 2    
     6    2    4 am   BACKBONE|DICT|INTERRES
     7    4    5 1    
     8    4   75 1    
     9    5    6 1    
    10    5   35 1    
    11    5   76 1    
    12    6    7 1    
    13    6   77 1    
    14    6   78 1    
    15    7    8 1    
    16    8    9 1    
    17    8   79 1    
    18    8   80 1    
    19    9   10 ar   
    20    9   14 ar   
    21   10   11 ar   
    22   10   81 1    
    23   11   12 ar   
    24   11   71 1    
    25   12   13 ar   
    26   12   82 1    
    27   13   14 ar   
    28   13   15 1    
    29   14   83 1    
    30   15   16 1    
    31   15   84 1    
    32   15   85 1    
    33   16   17 1    
    34   17   18 1    
    35   17   86 1    
    36   17   87 1    
    37   18   19 1    
    38   18   37 1    
    39   18   88 1    
    40   19   20 am   BACKBONE|DICT|INTERRES
    41   19   89 1    
    42   20   21 2    
    43   20   22 1    
    44   22   23 1    
    45   22   24 1    
    46   22   90 1    
    47   23   91 1    
    48   23   92 1    
    49   23   93 1    
    50   24   25 am   BACKBONE|DICT|INTERRES
    51   24   94 1    
    52   25   26 2    
    53   25   27 1    
    54   27   28 1    
    55   27   29 1    
    56   27   95 1    
    57   28   96 1    
    58   28   97 1    
    59   28   98 1    
    60   29   30 am   BACKBONE|DICT|INTERRES
    61   29   99 1    
    62   30   31 2    
    63   30   32 1    
    64   32   33 1    
    65   32   34 1    
    66   32  100 1    
    67   33  101 1    
    68   33  102 1    
    69   33  103 1    
    70   34   35 am   BACKBONE|DICT|INTERRES
    71   34  104 1    
    72   35   36 2    
    73   37   38 2    
    74   37   39 am   BACKBONE|DICT|INTERRES
    75   39   40 1    
    76   39  105 1    
    77   40   41 1    
    78   40   42 1    
    79   40  106 1    
    80   41  107 1    
    81   41  108 1    
    82   41  109 1    
    83   42   43 2    
    84   42   44 am   BACKBONE|DICT|INTERRES
    85   44   45 1    
    86   44  110 1    
    87   45   46 1    
    88   45   47 1    
    89   45  111 1    
    90   46  112 1    
    91   46  113 1    
    92   46  114 1    
    93   47   48 2    
    94   47   49 am   BACKBONE|DICT|INTERRES
    95   49   50 1    
    96   49  115 1    
    97   50   51 1    
    98   50   52 1    
    99   50  116 1    
   100   51  117 1    
   101   51  118 1    
   102   51  119 1    
   103   52   53 2    
   104   52   54 am   BACKBONE|DICT|INTERRES
   105   54   55 1    
   106   54  120 1    
   107   55   56 1    
   108   55   57 1    
   109   55  121 1    
   110   56  122 1    
   111   56  123 1    
   112   56  124 1    
   113   57   58 2    
   114   57   59 am   BACKBONE|DICT|INTERRES
   115   59   60 1    
   116   59  125 1    
   117   60   61 1    
   118   60   62 1    
   119   60  126 1    
   120   61  127 1    
   121   61  128 1    
   122   61  129 1    
   123   62   63 2    
   124   62   64 am   BACKBONE|DICT|INTERRES
   125   64   65 1    
   126   64  130 1    
   127   65   66 1    
   128   65   69 1    
   129   65  131 1    
   130   66   67 am   BACKBONE|DICT|INTERRES
   131   66   68 2    
   132   67  132 1    
   133   67  133 1    
   134   69   70 1    
   135   69  134 1    
   136   69  135 1    
   137   70   71 1    
   138   71  136 1    
   139   71  137 1    
@<TRIPOS>SUBSTRUCTURE
     1 UNK         1 GROUP             0       ****    0 ROOT    
