@<TRIPOS>MOLECULE
3R136
137   139    1
SMALL
USER_CHARGES


@<TRIPOS>ATOM
      1 CA         28.5076   29.9382   -0.9622 C.3       0 UNK        -0.1979 
      2 C          28.7242   28.4937   -1.3895 C.2       0 UNK         0.4864 
      3 O          28.4479   28.1585   -2.5421 O.2       0 UNK        -0.5359 
      4 N          29.2176   27.6432   -0.4755 N.am      1 UNK        -0.4318 
      5 CA         29.5426   26.2210   -0.6565 C.3       1 UNK         0.0824 
      6 C6         30.6486   25.9784   -1.7235 C.3       12 UNK        -0.0944 
      7 S7         31.1578   24.2295   -1.8831 S.3       12 UNK        -0.2672 
      8 C8         32.7979   24.2232   -1.1001 C.3       12 UNK         0.0333 
      9 C9         32.7239   24.4471    0.4033 C.ar      12 UNK        -0.0807 
     10 C10        33.1787   25.6470    0.9565 C.ar      12 UNK        -0.0894 
     11 C11        33.1791   25.8367    2.3414 C.ar      12 UNK        -0.0804 
     12 C12        32.7082   24.8160    3.1734 C.ar      12 UNK        -0.0824 
     13 C13        32.2300   23.6185    2.6319 C.ar      12 UNK        -0.0762 
     14 C14        32.2441   23.4384    1.2452 C.ar      12 UNK        -0.0782 
     15 C15        31.7381   22.5041    3.5469 C.3       12 UNK         0.0230 
     16 S16        29.9227   22.3431    3.5456 S.3       12 UNK        -0.2608 
     17 C17        29.3940   23.9216    4.2959 C.3       12 UNK        -0.0989 
     18 CA         28.6521   24.8206    3.2689 C.3       5 UNK         0.0716 
     19 N          27.4200   24.2261    2.7329 N.am      5 UNK        -0.4135 
     20 C          26.3177   23.9122    3.4282 C.2       4 UNK         0.5031 
     21 O          26.1976   24.0837    4.6433 O.2       4 UNK        -0.5229 
     22 CA         25.1548   23.3013    2.6194 C.3       4 UNK         0.0329 
     23 CB         23.9194   22.9865    3.4904 C.3       4 UNK        -0.2001 
     24 N          24.7605   24.1062    1.4561 N.am      4 UNK        -0.4303 
     25 C          24.3629   25.3872    1.4344 C.2       3 UNK         0.5044 
     26 O          24.3272   26.1140    2.4272 O.2       3 UNK        -0.5152 
     27 CA         23.9407   25.9441    0.0578 C.3       3 UNK         0.0319 
     28 CB         23.5021   27.4195    0.1075 C.3       3 UNK        -0.2001 
     29 N          25.0034   25.7987   -0.9392 N.am      3 UNK        -0.4354 
     30 C          25.2916   24.6696   -1.5995 C.2       2 UNK         0.4964 
     31 O          24.6581   23.6217   -1.4659 O.2       2 UNK        -0.5047 
     32 CA         26.5184   24.6968   -2.5236 C.3       2 UNK         0.0288 
     33 CB         26.1237   25.1640   -3.9335 C.3       2 UNK        -0.2113 
     34 N          27.6246   25.5233   -2.0308 N.am      2 UNK        -0.4145 
     35 C          28.2860   25.3495   -0.8781 C.2       1 UNK         0.5006 
     36 O          27.9506   24.5397   -0.0121 O.2       1 UNK        -0.5103 
     37 C          28.4146   26.2618    3.7662 C.2       5 UNK         0.5055 
     38 O          28.8963   26.6402    4.8354 O.2       5 UNK        -0.5220 
     39 N          27.6783   27.0448    2.9627 N.am      6 UNK        -0.4450 
     40 CA         27.5262   28.4930    3.1196 C.3       6 UNK         0.0367 
     41 CB         26.4416   28.9957    2.1556 C.3       6 UNK        -0.1929 
     42 C          28.8561   29.2202    2.8632 C.2       6 UNK         0.5070 
     43 O          29.6883   28.6974    2.1177 O.2       6 UNK        -0.5237 
     44 N          29.0011   30.4056    3.4698 N.am      7 UNK        -0.4739 
     45 CA         30.2175   31.2147    3.6286 C.3       7 UNK         0.0276 
     46 CB         29.8819   32.4140    4.5371 C.3       7 UNK        -0.1927 
     47 C          30.9505   31.6564    2.3422 C.2       7 UNK         0.5013 
     48 O          31.1192   32.8553    2.1103 O.2       7 UNK        -0.5193 
     49 N          31.4370   30.6869    1.5602 N.am      8 UNK        -0.4253 
     50 CA         32.3580   30.8844    0.4373 C.3       8 UNK         0.0242 
     51 CB         32.4387   29.5911   -0.3902 C.3       8 UNK        -0.2000 
     52 C          33.7645   31.3120    0.8954 C.2       8 UNK         0.4948 
     53 O          34.4383   32.0477    0.1738 O.2       8 UNK        -0.5275 
     54 N          34.1736   30.8486    2.0835 N.am      9 UNK        -0.4246 
     55 CA         35.4581   31.1468    2.7165 C.3       9 UNK         0.0261 
     56 CB         36.5117   30.1120    2.2725 C.3       9 UNK        -0.1959 
     57 C          35.2815   31.2174    4.2417 C.2       9 UNK         0.5033 
     58 O          36.0071   30.5466    4.9762 O.2       9 UNK        -0.5390 
     59 N          34.2819   31.9970    4.6862 N.am      10 UNK        -0.4215 
     60 CA         33.8836   32.2458    6.0859 C.3       10 UNK         0.0240 
     61 CB         35.0167   32.9497    6.8632 C.3       10 UNK        -0.1982 
     62 C          33.3375   31.0177    6.8511 C.2       10 UNK         0.4970 
     63 O          33.1018   31.1116    8.0567 O.2       10 UNK        -0.4916 
     64 N          33.1290   29.9043    6.1428 N.am      11 UNK        -0.4279 
     65 CA         32.4978   28.6606    6.5999 C.3       11 UNK         0.1003 
     66 C          31.0176   28.8265    7.0493 C.2       11 UNK         0.5709 
     67 N          30.5207   27.9145    7.8745 N.am      11 UNK        -0.7358 
     68 O          30.3161   29.7565    6.6591 O.2       11 UNK        -0.4999 
     69 C69        32.6718   27.5276    5.5458 C.3       12 UNK        -0.0954 
     70 S70        32.4414   28.0719    3.8115 S.3       12 UNK        -0.2268 
     71 C71        33.7247   27.1299    2.9311 C.3       12 UNK         0.0203 
     72 H72        27.4422   30.1589   -0.9063 H         1 UNK         0.0888 
     73 H73        28.9544   30.1531    0.0067 H         1 UNK         0.0888 
     74 H74        28.9567   30.6132   -1.6903 H         1 UNK         0.0888 
     75 H75        29.4131   27.9996    0.4601 H         1 UNK         0.3017 
     76 H76        29.9635   25.9078    0.3003 H         1 UNK         0.0873 
     77 H77        31.5230   26.5867   -1.4887 H         1 UNK         0.0745 
     78 H78        30.3181   26.3109   -2.7083 H         1 UNK         0.0745 
     79 H79        33.2726   23.2601   -1.2928 H         1 UNK         0.0705 
     80 H80        33.4301   24.9726   -1.5792 H         1 UNK         0.0705 
     81 H81        33.5572   26.4241    0.3071 H         1 UNK         0.1334 
     82 H82        32.7198   24.9536    4.2450 H         1 UNK         0.1417 
     83 H83        31.8896   22.5086    0.8209 H         1 UNK         0.1562 
     84 H84        32.0842   22.6599    4.5700 H         1 UNK         0.0748 
     85 H85        32.1728   21.5572    3.2234 H         1 UNK         0.0748 
     86 H86        30.2700   24.4349    4.6952 H         1 UNK         0.0940 
     87 H87        28.7610   23.7085    5.1582 H         1 UNK         0.0940 
     88 H88        29.3212   24.9318    2.4145 H         1 UNK         0.0703 
     89 H89        27.4262   24.0829    1.7251 H         1 UNK         0.3081 
     90 H90        25.5263   22.3543    2.2248 H         1 UNK         0.0719 
     91 H91        23.4989   23.8887    3.9363 H         1 UNK         0.0809 
     92 H92        23.1351   22.5038    2.9074 H         1 UNK         0.0809 
     93 H93        24.1779   22.3102    4.3061 H         1 UNK         0.0809 
     94 H94        24.7745   23.6255    0.5616 H         1 UNK         0.2990 
     95 H95        23.0746   25.3609   -0.2626 H         1 UNK         0.0690 
     96 H96        23.1066   27.7450   -0.8549 H         1 UNK         0.0788 
     97 H97        24.3272   28.0809    0.3678 H         1 UNK         0.0788 
     98 H98        22.7134   27.5713    0.8458 H         1 UNK         0.0788 
     99 H99        25.5929   26.6028   -1.0965 H         1 UNK         0.2993 
    100 H100       26.8894   23.6720   -2.5938 H         1 UNK         0.0949 
    101 H101       26.9615   25.0825   -4.6265 H         1 UNK         0.0767 
    102 H102       25.3123   24.5551   -4.3352 H         1 UNK         0.0767 
    103 H103       25.7868   26.2015   -3.9353 H         1 UNK         0.0767 
    104 H104       27.9307   26.2932   -2.6201 H         1 UNK         0.3013 
    105 H105       27.2917   26.6369    2.1260 H         1 UNK         0.3121 
    106 H106       27.2118   28.6940    4.1460 H         1 UNK         0.0774 
    107 H107       26.3457   30.0816    2.1970 H         1 UNK         0.0815 
    108 H108       26.6591   28.7255    1.1225 H         1 UNK         0.0815 
    109 H109       25.4685   28.5807    2.4169 H         1 UNK         0.0815 
    110 H110       28.2133   30.7348    4.0090 H         1 UNK         0.2987 
    111 H111       30.9289   30.5949    4.1751 H         1 UNK         0.0949 
    112 H112       29.1466   33.0745    4.0758 H         1 UNK         0.0806 
    113 H113       29.4844   32.0882    5.4986 H         1 UNK         0.0806 
    114 H114       30.7700   33.0109    4.7490 H         1 UNK         0.0806 
    115 H115       31.1421   29.7346    1.7722 H         1 UNK         0.3010 
    116 H116       31.9611   31.6787   -0.1986 H         1 UNK         0.0829 
    117 H117       31.4852   29.3646   -0.8626 H         1 UNK         0.0813 
    118 H118       33.1760   29.6806   -1.1893 H         1 UNK         0.0813 
    119 H119       32.7211   28.7350    0.2226 H         1 UNK         0.0813 
    120 H120       33.5512   30.2375    2.5930 H         1 UNK         0.3038 
    121 H121       35.7976   32.1360    2.4015 H         1 UNK         0.0769 
    122 H122       37.4869   30.3361    2.7066 H         1 UNK         0.0811 
    123 H123       36.6342   30.1093    1.1894 H         1 UNK         0.0811 
    124 H124       36.2405   29.1023    2.5820 H         1 UNK         0.0811 
    125 H125       33.7504   32.5054    3.9917 H         1 UNK         0.3204 
    126 H126       33.0479   32.9450    6.0322 H         1 UNK         0.0748 
    127 H127       34.6762   33.2737    7.8475 H         1 UNK         0.0771 
    128 H128       35.8722   32.2916    7.0183 H         1 UNK         0.0771 
    129 H129       35.3672   33.8375    6.3369 H         1 UNK         0.0771 
    130 H130       33.3716   29.9141    5.1662 H         1 UNK         0.2980 
    131 H131       33.0471   28.3599    7.4942 H         1 UNK         0.0545 
    132 H132       31.0786   27.1405    8.1982 H         1 UNK         0.3459 
    133 H133       29.5589   27.9952    8.1632 H         1 UNK         0.3459 
    134 H134       33.6766   27.1176    5.6503 H         1 UNK         0.0616 
    135 H135       31.9967   26.6924    5.7411 H         1 UNK         0.0616 
    136 H136       34.5677   26.9112    3.5872 H         1 UNK         0.0634 
    137 H137       34.1219   27.7659    2.1391 H         1 UNK         0.0634 
@<TRIPOS>BOND
     1    1    2 1    
     2    1   72 1    
     3    1   73 1    
     4    1   74 1    
     5    2    3 2    
     6    2    4 am   BACKBONE|DICT|INTERRES
     7    4    5 1    
     8    4   75 1    
     9    5    6 1    
    10    5   35 1    
    11    5   76 1    
    12    6    7 1    
    13    6   77 1    
    14    6   78 1    
    15    7    8 1    
    16    8    9 1    
    17    8   79 1    
    18    8   80 1    
    19    9   10 ar   
    20    9   14 ar   
    21   10   11 ar   
    22   10   81 1    
    23   11   12 ar   
    24   11   71 1    
    25   12   13 ar   
    26   12   82 1    
    27   13   14 ar   
    28   13   15 1    
    29   14   83 1    
    30   15   16 1    
    31   15   84 1    
    32   15   85 1    
    33   16   17 1    
    34   17   18 1    
    35   17   86 1    
    36   17   87 1    
    37   18   19 1    
    38   18   37 1    
    39   18   88 1    
    40   19   20 am   BACKBONE|DICT|INTERRES
    41   19   89 1    
    42   20   21 2    
    43   20   22 1    
    44   22   23 1    
    45   22   24 1    
    46   22   90 1    
    47   23   91 1    
    48   23   92 1    
    49   23   93 1    
    50   24   25 am   BACKBONE|DICT|INTERRES
    51   24   94 1    
    52   25   26 2    
    53   25   27 1    
    54   27   28 1    
    55   27   29 1    
    56   27   95 1    
    57   28   96 1    
    58   28   97 1    
    59   28   98 1    
    60   29   30 am   BACKBONE|DICT|INTERRES
    61   29   99 1    
    62   30   31 2    
    63   30   32 1    
    64   32   33 1    
    65   32   34 1    
    66   32  100 1    
    67   33  101 1    
    68   33  102 1    
    69   33  103 1    
    70   34   35 am   BACKBONE|DICT|INTERRES
    71   34  104 1    
    72   35   36 2    
    73   37   38 2    
    74   37   39 am   BACKBONE|DICT|INTERRES
    75   39   40 1    
    76   39  105 1    
    77   40   41 1    
    78   40   42 1    
    79   40  106 1    
    80   41  107 1    
    81   41  108 1    
    82   41  109 1    
    83   42   43 2    
    84   42   44 am   BACKBONE|DICT|INTERRES
    85   44   45 1    
    86   44  110 1    
    87   45   46 1    
    88   45   47 1    
    89   45  111 1    
    90   46  112 1    
    91   46  113 1    
    92   46  114 1    
    93   47   48 2    
    94   47   49 am   BACKBONE|DICT|INTERRES
    95   49   50 1    
    96   49  115 1    
    97   50   51 1    
    98   50   52 1    
    99   50  116 1    
   100   51  117 1    
   101   51  118 1    
   102   51  119 1    
   103   52   53 2    
   104   52   54 am   BACKBONE|DICT|INTERRES
   105   54   55 1    
   106   54  120 1    
   107   55   56 1    
   108   55   57 1    
   109   55  121 1    
   110   56  122 1    
   111   56  123 1    
   112   56  124 1    
   113   57   58 2    
   114   57   59 am   BACKBONE|DICT|INTERRES
   115   59   60 1    
   116   59  125 1    
   117   60   61 1    
   118   60   62 1    
   119   60  126 1    
   120   61  127 1    
   121   61  128 1    
   122   61  129 1    
   123   62   63 2    
   124   62   64 am   BACKBONE|DICT|INTERRES
   125   64   65 1    
   126   64  130 1    
   127   65   66 1    
   128   65   69 1    
   129   65  131 1    
   130   66   67 am   BACKBONE|DICT|INTERRES
   131   66   68 2    
   132   67  132 1    
   133   67  133 1    
   134   69   70 1    
   135   69  134 1    
   136   69  135 1    
   137   70   71 1    
   138   71  136 1    
   139   71  137 1    
@<TRIPOS>SUBSTRUCTURE
     1 UNK         1 GROUP             0       ****    0 ROOT    
