@<TRIPOS>MOLECULE
3R136
137   139    1
SMALL
USER_CHARGES


@<TRIPOS>ATOM
      1 CA         29.5274   23.4274   -2.3721 C.3       0 UNK        -0.1979 
      2 C          28.8140   22.9524   -1.1156 C.2       0 UNK         0.4864 
      3 O          28.1017   21.9482   -1.1591 O.2       0 UNK        -0.5359 
      4 N          28.9794   23.6785   -0.0021 N.am      1 UNK        -0.4318 
      5 CA         28.3690   23.4653    1.3174 C.3       1 UNK         0.0824 
      6 C6         28.6455   22.0591    1.9219 C.3       12 UNK        -0.0944 
      7 S7         28.9091   22.1139    3.7275 S.3       12 UNK        -0.2672 
      8 C8         30.6886   21.7405    3.8735 C.3       12 UNK         0.0333 
      9 C9         31.5628   22.9509    3.5707 C.ar      12 UNK        -0.0807 
     10 C10        32.0558   23.7459    4.6117 C.ar      12 UNK        -0.0894 
     11 C11        32.8691   24.8547    4.3475 C.ar      12 UNK        -0.0804 
     12 C12        33.1916   25.1536    3.0185 C.ar      12 UNK        -0.0824 
     13 C13        32.7085   24.3683    1.9703 C.ar      12 UNK        -0.0762 
     14 C14        31.9003   23.2654    2.2522 C.ar      12 UNK        -0.0782 
     15 C15        33.0697   24.6935    0.5311 C.3       12 UNK         0.0230 
     16 S16        31.7738   25.6870   -0.2668 S.3       12 UNK        -0.2608 
     17 C17        32.2839   27.3975    0.1171 C.3       12 UNK        -0.0989 
     18 CA         31.1791   28.3530    0.6508 C.3       5 UNK         0.0716 
     19 N          29.9438   28.4113   -0.1538 N.am      5 UNK        -0.4135 
     20 C          28.8760   27.6010   -0.1536 C.2       4 UNK         0.5031 
     21 O          28.7469   26.6010    0.5560 O.2       4 UNK        -0.5229 
     22 CA         27.7506   27.9539   -1.1276 C.3       4 UNK         0.0329 
     23 CB         27.9848   27.2866   -2.4946 C.3       4 UNK        -0.2001 
     24 N          26.4950   27.4817   -0.5530 N.am      4 UNK        -0.4303 
     25 C          25.2768   27.9598   -0.8277 C.2       3 UNK         0.5044 
     26 O          25.0715   28.8725   -1.6301 O.2       3 UNK        -0.5152 
     27 CA         24.0934   27.3306   -0.0605 C.3       3 UNK         0.0319 
     28 CB         22.7473   27.4984   -0.7983 C.3       3 UNK        -0.2001 
     29 N          24.3069   25.9276    0.3247 N.am      3 UNK        -0.4354 
     30 C          24.4851   24.8790   -0.4927 C.2       2 UNK         0.4964 
     31 O          24.5277   24.9549   -1.7219 O.2       2 UNK        -0.5047 
     32 CA         24.6774   23.5151    0.1916 C.3       2 UNK         0.0288 
     33 CB         24.0748   22.3641   -0.6341 C.3       2 UNK        -0.2113 
     34 N          26.0970   23.2490    0.4075 N.am      2 UNK        -0.4145 
     35 C          26.8685   23.8288    1.3353 C.2       1 UNK         0.5006 
     36 O          26.4398   24.6351    2.1625 O.2       1 UNK        -0.5103 
     37 C          30.9876   28.2947    2.1832 C.2       5 UNK         0.5055 
     38 O          31.4845   29.1824    2.8736 O.2       5 UNK        -0.5220 
     39 N          30.2376   27.3141    2.6983 N.am      6 UNK        -0.4450 
     40 CA         29.7901   27.2604    4.0939 C.3       6 UNK         0.0367 
     41 CB         29.0843   25.9251    4.3628 C.3       6 UNK        -0.1929 
     42 C          28.8539   28.4315    4.4352 C.2       6 UNK         0.5070 
     43 O          28.9363   28.9845    5.5327 O.2       6 UNK        -0.5237 
     44 N          28.0145   28.8176    3.4627 N.am      7 UNK        -0.4739 
     45 CA         27.1900   30.0245    3.4861 C.3       7 UNK         0.0276 
     46 CB         26.3119   30.0613    2.2248 C.3       7 UNK        -0.1927 
     47 C          28.0758   31.2782    3.5853 C.2       7 UNK         0.5013 
     48 O          28.8944   31.5114    2.6942 O.2       7 UNK        -0.5193 
     49 N          27.9202   32.0181    4.6919 N.am      8 UNK        -0.4253 
     50 CA         28.7127   33.1842    5.1078 C.3       8 UNK         0.0242 
     51 CB         28.6095   34.3316    4.0789 C.3       8 UNK        -0.2000 
     52 C          30.1767   32.8660    5.4865 C.2       8 UNK         0.4948 
     53 O          30.9559   33.8046    5.6593 O.2       8 UNK        -0.5275 
     54 N          30.5180   31.5754    5.6488 N.am      9 UNK        -0.4246 
     55 CA         31.8247   31.0409    6.0570 C.3       9 UNK         0.0261 
     56 CB         32.0636   31.3040    7.5585 C.3       9 UNK        -0.1959 
     57 C          32.9946   31.5192    5.1721 C.2       9 UNK         0.5033 
     58 O          34.0384   31.9286    5.6851 O.2       9 UNK        -0.5390 
     59 N          32.8100   31.4328    3.8509 N.am      10 UNK        -0.4215 
     60 CA         33.8093   31.7317    2.8252 C.3       10 UNK         0.0240 
     61 CB         33.1092   32.4364    1.6482 C.3       10 UNK        -0.1982 
     62 C          34.5156   30.4295    2.4048 C.2       10 UNK         0.4970 
     63 O          34.5793   30.1108    1.2159 O.2       10 UNK        -0.4916 
     64 N          34.9925   29.6764    3.4024 N.am      11 UNK        -0.4279 
     65 CA         35.5518   28.3259    3.2509 C.3       11 UNK         0.1003 
     66 C          37.0182   28.2827    2.7328 C.2       11 UNK         0.5709 
     67 N          37.7196   29.4043    2.6173 N.am      11 UNK        -0.7358 
     68 O          37.5256   27.2088    2.4187 O.2       11 UNK        -0.4999 
     69 C69        35.3866   27.4937    4.5533 C.3       12 UNK        -0.0954 
     70 S70        33.6671   27.4543    5.1786 S.3       12 UNK        -0.2268 
     71 C71        33.4031   25.6783    5.5215 C.3       12 UNK         0.0203 
     72 H72        28.8379   23.4348   -3.2158 H         1 UNK         0.0888 
     73 H73        29.9265   24.4346   -2.2577 H         1 UNK         0.0888 
     74 H74        30.3529   22.7573   -2.6103 H         1 UNK         0.0888 
     75 H75        29.5249   24.5317   -0.0579 H         1 UNK         0.3017 
     76 H76        28.8670   24.2046    1.9457 H         1 UNK         0.0873 
     77 H77        27.8324   21.3625    1.7085 H         1 UNK         0.0745 
     78 H78        29.5213   21.6075    1.4569 H         1 UNK         0.0745 
     79 H79        30.9512   20.9089    3.2179 H         1 UNK         0.0705 
     80 H80        30.8831   21.3907    4.8885 H         1 UNK         0.0705 
     81 H81        31.8030   23.4994    5.6340 H         1 UNK         0.1334 
     82 H82        33.8225   25.9953    2.7903 H         1 UNK         0.1417 
     83 H83        31.5364   22.6536    1.4393 H         1 UNK         0.1562 
     84 H84        33.1908   23.7665   -0.0314 H         1 UNK         0.0748 
     85 H85        34.0316   25.2055    0.4735 H         1 UNK         0.0748 
     86 H86        32.6805   27.8122   -0.8108 H         1 UNK         0.0940 
     87 H87        33.1345   27.3894    0.8006 H         1 UNK         0.0940 
     88 H88        31.5948   29.3509    0.4968 H         1 UNK         0.0703 
     89 H89        29.9096   29.2010   -0.7825 H         1 UNK         0.3081 
     90 H90        27.7110   29.0391   -1.2446 H         1 UNK         0.0719 
     91 H91        27.2071   27.5605   -3.2077 H         1 UNK         0.0809 
     92 H92        28.9403   27.5900   -2.9244 H         1 UNK         0.0809 
     93 H93        27.9917   26.1990   -2.4125 H         1 UNK         0.0809 
     94 H94        26.6030   26.7508    0.1400 H         1 UNK         0.2990 
     95 H95        24.0188   27.8871    0.8744 H         1 UNK         0.0690 
     96 H96        22.7624   27.0256   -1.7808 H         1 UNK         0.0788 
     97 H97        22.5116   28.5525   -0.9498 H         1 UNK         0.0788 
     98 H98        21.9254   27.0642   -0.2291 H         1 UNK         0.0788 
     99 H99        24.3641   25.7551    1.3205 H         1 UNK         0.2993 
    100 H100       24.1702   23.5344    1.1589 H         1 UNK         0.0949 
    101 H101       24.5756   22.2487   -1.5965 H         1 UNK         0.0767 
    102 H102       24.1508   21.4150   -0.1031 H         1 UNK         0.0767 
    103 H103       23.0170   22.5402   -0.8345 H         1 UNK         0.0767 
    104 H104       26.5617   22.6370   -0.2588 H         1 UNK         0.3013 
    105 H105       29.7948   26.6823    2.0347 H         1 UNK         0.3121 
    106 H106       30.6704   27.3265    4.7356 H         1 UNK         0.0774 
    107 H107       28.8324   25.8231    5.4189 H         1 UNK         0.0815 
    108 H108       28.1576   25.8365    3.7961 H         1 UNK         0.0815 
    109 H109       29.7179   25.0822    4.0975 H         1 UNK         0.0815 
    110 H110       28.0467   28.3073    2.5928 H         1 UNK         0.2987 
    111 H111       26.5368   29.9695    4.3597 H         1 UNK         0.0949 
    112 H112       26.9107   30.0815    1.3132 H         1 UNK         0.0806 
    113 H113       25.6545   29.1938    2.1775 H         1 UNK         0.0806 
    114 H114       25.6778   30.9488    2.2172 H         1 UNK         0.0806 
    115 H115       27.2321   31.7119    5.3669 H         1 UNK         0.3010 
    116 H116       28.2476   33.5374    6.0295 H         1 UNK         0.0829 
    117 H117       29.0426   35.2513    4.4739 H         1 UNK         0.0813 
    118 H118       29.1399   34.0984    3.1552 H         1 UNK         0.0813 
    119 H119       27.5716   34.5479    3.8261 H         1 UNK         0.0813 
    120 H120       29.8055   30.8707    5.4865 H         1 UNK         0.3038 
    121 H121       31.7650   29.9600    5.9176 H         1 UNK         0.0769 
    122 H122       32.9797   30.8200    7.8993 H         1 UNK         0.0811 
    123 H123       31.2470   30.9115    8.1644 H         1 UNK         0.0811 
    124 H124       32.1587   32.3695    7.7711 H         1 UNK         0.0811 
    125 H125       31.9957   30.9167    3.5231 H         1 UNK         0.3204 
    126 H126       34.5695   32.4076    3.2218 H         1 UNK         0.0748 
    127 H127       33.8231   32.7007    0.8670 H         1 UNK         0.0771 
    128 H128       32.3452   31.8020    1.1964 H         1 UNK         0.0771 
    129 H129       32.6266   33.3588    1.9721 H         1 UNK         0.0771 
    130 H130       34.9011   30.0150    4.3494 H         1 UNK         0.2980 
    131 H131       34.9687   27.8335    2.4730 H         1 UNK         0.0545 
    132 H132       37.3111   30.2902    2.8673 H         1 UNK         0.3459 
    133 H133       38.6666   29.3619    2.2751 H         1 UNK         0.3459 
    134 H134       35.7275   26.4699    4.3897 H         1 UNK         0.0616 
    135 H135       36.0187   27.9003    5.3447 H         1 UNK         0.0616 
    136 H136       34.3296   25.2310    5.8833 H         1 UNK         0.0634 
    137 H137       32.6947   25.6189    6.3491 H         1 UNK         0.0634 
@<TRIPOS>BOND
     1    1    2 1    
     2    1   72 1    
     3    1   73 1    
     4    1   74 1    
     5    2    3 2    
     6    2    4 am   BACKBONE|DICT|INTERRES
     7    4    5 1    
     8    4   75 1    
     9    5    6 1    
    10    5   35 1    
    11    5   76 1    
    12    6    7 1    
    13    6   77 1    
    14    6   78 1    
    15    7    8 1    
    16    8    9 1    
    17    8   79 1    
    18    8   80 1    
    19    9   10 ar   
    20    9   14 ar   
    21   10   11 ar   
    22   10   81 1    
    23   11   12 ar   
    24   11   71 1    
    25   12   13 ar   
    26   12   82 1    
    27   13   14 ar   
    28   13   15 1    
    29   14   83 1    
    30   15   16 1    
    31   15   84 1    
    32   15   85 1    
    33   16   17 1    
    34   17   18 1    
    35   17   86 1    
    36   17   87 1    
    37   18   19 1    
    38   18   37 1    
    39   18   88 1    
    40   19   20 am   BACKBONE|DICT|INTERRES
    41   19   89 1    
    42   20   21 2    
    43   20   22 1    
    44   22   23 1    
    45   22   24 1    
    46   22   90 1    
    47   23   91 1    
    48   23   92 1    
    49   23   93 1    
    50   24   25 am   BACKBONE|DICT|INTERRES
    51   24   94 1    
    52   25   26 2    
    53   25   27 1    
    54   27   28 1    
    55   27   29 1    
    56   27   95 1    
    57   28   96 1    
    58   28   97 1    
    59   28   98 1    
    60   29   30 am   BACKBONE|DICT|INTERRES
    61   29   99 1    
    62   30   31 2    
    63   30   32 1    
    64   32   33 1    
    65   32   34 1    
    66   32  100 1    
    67   33  101 1    
    68   33  102 1    
    69   33  103 1    
    70   34   35 am   BACKBONE|DICT|INTERRES
    71   34  104 1    
    72   35   36 2    
    73   37   38 2    
    74   37   39 am   BACKBONE|DICT|INTERRES
    75   39   40 1    
    76   39  105 1    
    77   40   41 1    
    78   40   42 1    
    79   40  106 1    
    80   41  107 1    
    81   41  108 1    
    82   41  109 1    
    83   42   43 2    
    84   42   44 am   BACKBONE|DICT|INTERRES
    85   44   45 1    
    86   44  110 1    
    87   45   46 1    
    88   45   47 1    
    89   45  111 1    
    90   46  112 1    
    91   46  113 1    
    92   46  114 1    
    93   47   48 2    
    94   47   49 am   BACKBONE|DICT|INTERRES
    95   49   50 1    
    96   49  115 1    
    97   50   51 1    
    98   50   52 1    
    99   50  116 1    
   100   51  117 1    
   101   51  118 1    
   102   51  119 1    
   103   52   53 2    
   104   52   54 am   BACKBONE|DICT|INTERRES
   105   54   55 1    
   106   54  120 1    
   107   55   56 1    
   108   55   57 1    
   109   55  121 1    
   110   56  122 1    
   111   56  123 1    
   112   56  124 1    
   113   57   58 2    
   114   57   59 am   BACKBONE|DICT|INTERRES
   115   59   60 1    
   116   59  125 1    
   117   60   61 1    
   118   60   62 1    
   119   60  126 1    
   120   61  127 1    
   121   61  128 1    
   122   61  129 1    
   123   62   63 2    
   124   62   64 am   BACKBONE|DICT|INTERRES
   125   64   65 1    
   126   64  130 1    
   127   65   66 1    
   128   65   69 1    
   129   65  131 1    
   130   66   67 am   BACKBONE|DICT|INTERRES
   131   66   68 2    
   132   67  132 1    
   133   67  133 1    
   134   69   70 1    
   135   69  134 1    
   136   69  135 1    
   137   70   71 1    
   138   71  136 1    
   139   71  137 1    
@<TRIPOS>SUBSTRUCTURE
     1 UNK         1 GROUP             0       ****    0 ROOT    
