@<TRIPOS>MOLECULE
3R136
137   139    1
SMALL
USER_CHARGES


@<TRIPOS>ATOM
      1 CA         30.2650   19.9725   -2.7829 C.3       0 UNK        -0.1979 
      2 C          29.5954   20.1735   -1.4314 C.2       0 UNK         0.4864 
      3 O          28.7616   19.3560   -1.0397 O.2       0 UNK        -0.5359 
      4 N          29.9513   21.2598   -0.7288 N.am      1 UNK        -0.4318 
      5 CA         29.4645   21.6423    0.6084 C.3       1 UNK         0.0824 
      6 C6         29.8609   20.6358    1.7280 C.3       12 UNK        -0.0944 
      7 S7         31.6543   20.2917    1.7977 S.3       12 UNK        -0.2672 
      8 C8         32.1595   21.1651    3.3140 C.3       12 UNK         0.0333 
      9 C9         32.2916   22.6631    3.0844 C.ar      12 UNK        -0.0807 
     10 C10        33.4853   23.1911    2.5831 C.ar      12 UNK        -0.0894 
     11 C11        33.6211   24.5663    2.3704 C.ar      12 UNK        -0.0804 
     12 C12        32.5471   25.4145    2.6550 C.ar      12 UNK        -0.0824 
     13 C13        31.3531   24.8994    3.1682 C.ar      12 UNK        -0.0762 
     14 C14        31.2316   23.5235    3.3841 C.ar      12 UNK        -0.0782 
     15 C15        30.1954   25.8269    3.5030 C.3       12 UNK         0.0230 
     16 S16        28.8794   25.7231    2.2541 S.3       12 UNK        -0.2608 
     17 C17        29.6120   26.6514    0.8549 C.3       12 UNK        -0.0989 
     18 CA         28.9289   28.0108    0.5554 C.3       5 UNK         0.0716 
     19 N          27.5587   27.8428    0.0568 N.am      5 UNK        -0.4135 
     20 C          26.7549   28.8298   -0.3739 C.2       4 UNK         0.5031 
     21 O          27.1078   30.0071   -0.4505 O.2       4 UNK        -0.5229 
     22 CA         25.2995   28.4697   -0.7405 C.3       4 UNK         0.0329 
     23 CB         25.1455   28.3577   -2.2655 C.3       4 UNK        -0.2001 
     24 N          24.8042   27.2381   -0.1179 N.am      4 UNK        -0.4303 
     25 C          24.7581   26.9947    1.1995 C.2       3 UNK         0.5044 
     26 O          25.0309   27.8364    2.0568 O.2       3 UNK        -0.5152 
     27 CA         24.4044   25.5621    1.6450 C.3       3 UNK         0.0319 
     28 CB         22.9197   25.4836    2.0359 C.3       3 UNK        -0.2001 
     29 N          24.7117   24.4666    0.7080 N.am      3 UNK        -0.4354 
     30 C          25.8629   24.2566    0.0508 C.2       2 UNK         0.4964 
     31 O          26.7691   25.0836   -0.0513 O.2       2 UNK        -0.5047 
     32 CA         26.0253   22.8985   -0.6472 C.3       2 UNK         0.0288 
     33 CB         25.6699   23.0113   -2.1386 C.3       2 UNK        -0.2113 
     34 N          27.4039   22.4213   -0.5140 N.am      2 UNK        -0.4145 
     35 C          27.9513   21.9779    0.6292 C.2       1 UNK         0.5006 
     36 O          27.3055   21.8352    1.6706 O.2       1 UNK        -0.5103 
     37 C          29.0423   28.9786    1.7546 C.2       5 UNK         0.5055 
     38 O          30.0860   29.6118    1.9155 O.2       5 UNK        -0.5220 
     39 N          27.9687   29.1075    2.5521 N.am      6 UNK        -0.4450 
     40 CA         27.8760   30.0061    3.7063 C.3       6 UNK         0.0367 
     41 CB         26.5275   29.7903    4.4094 C.3       6 UNK        -0.1929 
     42 C          28.0695   31.4937    3.3599 C.2       6 UNK         0.5070 
     43 O          28.5061   32.2560    4.2221 O.2       6 UNK        -0.5237 
     44 N          27.7980   31.8778    2.1027 N.am      7 UNK        -0.4739 
     45 CA         28.0288   33.2238    1.5691 C.3       7 UNK         0.0276 
     46 CB         27.4098   33.3243    0.1661 C.3       7 UNK        -0.1927 
     47 C          29.5133   33.6374    1.5333 C.2       7 UNK         0.5013 
     48 O          29.7949   34.8358    1.4999 O.2       7 UNK        -0.5193 
     49 N          30.4341   32.6609    1.5603 N.am      8 UNK        -0.4253 
     50 CA         31.8768   32.8940    1.6602 C.3       8 UNK         0.0242 
     51 CB         32.6279   31.6493    1.1579 C.3       8 UNK        -0.2000 
     52 C          32.3369   33.2482    3.0866 C.2       8 UNK         0.4948 
     53 O          33.4714   33.7039    3.2408 O.2       8 UNK        -0.5275 
     54 N          31.4868   33.0095    4.1003 N.am      9 UNK        -0.4246 
     55 CA         31.7004   33.1712    5.5476 C.3       9 UNK         0.0261 
     56 CB         31.9890   34.6380    5.9227 C.3       9 UNK        -0.1959 
     57 C          32.7575   32.2188    6.1391 C.2       9 UNK         0.5033 
     58 O          32.4781   31.5482    7.1341 O.2       9 UNK        -0.5390 
     59 N          33.9375   32.1620    5.5137 N.am      10 UNK        -0.4215 
     60 CA         34.9974   31.1895    5.7723 C.3       10 UNK         0.0240 
     61 CB         36.3089   31.7290    5.1763 C.3       10 UNK        -0.1982 
     62 C          34.6517   29.8176    5.1663 C.2       10 UNK         0.4970 
     63 O          33.7622   29.7228    4.3165 O.2       10 UNK        -0.4916 
     64 N          35.3800   28.7826    5.6040 N.am      11 UNK        -0.4279 
     65 CA         35.2754   27.3762    5.1706 C.3       11 UNK         0.1003 
     66 C          33.9918   26.6443    5.6619 C.2       11 UNK         0.5709 
     67 N          32.8294   27.2830    5.6514 N.am      11 UNK        -0.7358 
     68 O          34.0633   25.5005    6.1035 O.2       11 UNK        -0.4999 
     69 C69        35.5149   27.2147    3.6418 C.3       12 UNK        -0.0954 
     70 S70        36.0958   25.5561    3.1513 S.3       12 UNK        -0.2268 
     71 C71        34.9257   25.1261    1.8225 C.3       12 UNK         0.0203 
     72 H72        30.9760   20.7669   -3.0094 H         1 UNK         0.0888 
     73 H73        30.8018   19.0243   -2.7970 H         1 UNK         0.0888 
     74 H74        29.5158   19.9521   -3.5739 H         1 UNK         0.0888 
     75 H75        30.6489   21.8797   -1.1169 H         1 UNK         0.3017 
     76 H76        29.9600   22.5869    0.8391 H         1 UNK         0.0873 
     77 H77        29.5369   21.0006    2.7038 H         1 UNK         0.0745 
     78 H78        29.3439   19.6857    1.5840 H         1 UNK         0.0745 
     79 H79        33.1187   20.7626    3.6434 H         1 UNK         0.0705 
     80 H80        31.4547   20.9554    4.1201 H         1 UNK         0.0705 
     81 H81        34.3107   22.5293    2.3581 H         1 UNK         0.1334 
     82 H82        32.6426   26.4784    2.4898 H         1 UNK         0.1417 
     83 H83        30.3068   23.1251    3.7787 H         1 UNK         0.1562 
     84 H84        30.5329   26.8605    3.5977 H         1 UNK         0.0748 
     85 H85        29.7814   25.5516    4.4740 H         1 UNK         0.0748 
     86 H86        29.5583   26.0134   -0.0287 H         1 UNK         0.0940 
     87 H87        30.6771   26.8065    1.0295 H         1 UNK         0.0940 
     88 H88        29.4858   28.4770   -0.2601 H         1 UNK         0.0703 
     89 H89        27.1987   26.8897    0.0774 H         1 UNK         0.3081 
     90 H90        24.6683   29.2887   -0.3897 H         1 UNK         0.0719 
     91 H91        25.7334   27.5326   -2.6701 H         1 UNK         0.0809 
     92 H92        24.1048   28.2019   -2.5502 H         1 UNK         0.0809 
     93 H93        25.4812   29.2705   -2.7600 H         1 UNK         0.0809 
     94 H94        24.5863   26.4735   -0.7400 H         1 UNK         0.2990 
     95 H95        24.9976   25.3688    2.5411 H         1 UNK         0.0690 
     96 H96        22.6803   24.5285    2.5039 H         1 UNK         0.0788 
     97 H97        22.2688   25.6073    1.1694 H         1 UNK         0.0788 
     98 H98        22.6604   26.2645    2.7526 H         1 UNK         0.0788 
     99 H99        24.0212   23.7300    0.6747 H         1 UNK         0.2993 
    100 H100       25.3608   22.1696   -0.1780 H         1 UNK         0.0949 
    101 H101       25.7732   22.0510   -2.6444 H         1 UNK         0.0767 
    102 H102       24.6371   23.3368   -2.2708 H         1 UNK         0.0767 
    103 H103       26.3074   23.7323   -2.6526 H         1 UNK         0.0767 
    104 H104       28.0040   22.5375   -1.3165 H         1 UNK         0.3013 
    105 H105       27.1434   28.5582    2.3403 H         1 UNK         0.3121 
    106 H106       28.6734   29.7290    4.3989 H         1 UNK         0.0774 
    107 H107       26.4446   30.4180    5.2978 H         1 UNK         0.0815 
    108 H108       25.6894   30.0359    3.7558 H         1 UNK         0.0815 
    109 H109       26.4080   28.7556    4.7313 H         1 UNK         0.0815 
    110 H110       27.4722   31.1810    1.4424 H         1 UNK         0.2987 
    111 H111       27.5139   33.9311    2.2229 H         1 UNK         0.0949 
    112 H112       27.8944   32.6455   -0.5369 H         1 UNK         0.0806 
    113 H113       26.3460   33.0869    0.1816 H         1 UNK         0.0806 
    114 H114       27.5106   34.3341   -0.2342 H         1 UNK         0.0806 
    115 H115       30.1282   31.6936    1.5991 H         1 UNK         0.3010 
    116 H116       32.1398   33.7333    1.0127 H         1 UNK         0.0829 
    117 H117       32.3124   31.3691    0.1528 H         1 UNK         0.0813 
    118 H118       33.7027   31.8317    1.1221 H         1 UNK         0.0813 
    119 H119       32.4703   30.7911    1.8128 H         1 UNK         0.0813 
    120 H120       30.5754   32.6344    3.8611 H         1 UNK         0.3038 
    121 H121       30.7485   32.9017    6.0085 H         1 UNK         0.0769 
    122 H122       32.9343   34.9910    5.5101 H         1 UNK         0.0811 
    123 H123       32.0455   34.7567    7.0055 H         1 UNK         0.0811 
    124 H124       31.1998   35.2994    5.5649 H         1 UNK         0.0811 
    125 H125       34.0258   32.7258    4.6698 H         1 UNK         0.3204 
    126 H126       35.1145   31.0757    6.8521 H         1 UNK         0.0748 
    127 H127       37.1434   31.0560    5.3771 H         1 UNK         0.0771 
    128 H128       36.2391   31.8491    4.0940 H         1 UNK         0.0771 
    129 H129       36.5681   32.6981    5.6034 H         1 UNK         0.0771 
    130 H130       36.0685   28.9542    6.3225 H         1 UNK         0.2980 
    131 H131       36.1079   26.8858    5.6774 H         1 UNK         0.0545 
    132 H132       32.7851   28.2179    5.2654 H         1 UNK         0.3459 
    133 H133       32.0033   26.8233    5.9960 H         1 UNK         0.3459 
    134 H134       34.6231   27.4903    3.0791 H         1 UNK         0.0616 
    135 H135       36.2879   27.9130    3.3174 H         1 UNK         0.0616 
    136 H136       35.3970   24.3861    1.1740 H         1 UNK         0.0634 
    137 H137       34.7371   25.9978    1.1939 H         1 UNK         0.0634 
@<TRIPOS>BOND
     1    1    2 1    
     2    1   72 1    
     3    1   73 1    
     4    1   74 1    
     5    2    3 2    
     6    2    4 am   BACKBONE|DICT|INTERRES
     7    4    5 1    
     8    4   75 1    
     9    5    6 1    
    10    5   35 1    
    11    5   76 1    
    12    6    7 1    
    13    6   77 1    
    14    6   78 1    
    15    7    8 1    
    16    8    9 1    
    17    8   79 1    
    18    8   80 1    
    19    9   10 ar   
    20    9   14 ar   
    21   10   11 ar   
    22   10   81 1    
    23   11   12 ar   
    24   11   71 1    
    25   12   13 ar   
    26   12   82 1    
    27   13   14 ar   
    28   13   15 1    
    29   14   83 1    
    30   15   16 1    
    31   15   84 1    
    32   15   85 1    
    33   16   17 1    
    34   17   18 1    
    35   17   86 1    
    36   17   87 1    
    37   18   19 1    
    38   18   37 1    
    39   18   88 1    
    40   19   20 am   BACKBONE|DICT|INTERRES
    41   19   89 1    
    42   20   21 2    
    43   20   22 1    
    44   22   23 1    
    45   22   24 1    
    46   22   90 1    
    47   23   91 1    
    48   23   92 1    
    49   23   93 1    
    50   24   25 am   BACKBONE|DICT|INTERRES
    51   24   94 1    
    52   25   26 2    
    53   25   27 1    
    54   27   28 1    
    55   27   29 1    
    56   27   95 1    
    57   28   96 1    
    58   28   97 1    
    59   28   98 1    
    60   29   30 am   BACKBONE|DICT|INTERRES
    61   29   99 1    
    62   30   31 2    
    63   30   32 1    
    64   32   33 1    
    65   32   34 1    
    66   32  100 1    
    67   33  101 1    
    68   33  102 1    
    69   33  103 1    
    70   34   35 am   BACKBONE|DICT|INTERRES
    71   34  104 1    
    72   35   36 2    
    73   37   38 2    
    74   37   39 am   BACKBONE|DICT|INTERRES
    75   39   40 1    
    76   39  105 1    
    77   40   41 1    
    78   40   42 1    
    79   40  106 1    
    80   41  107 1    
    81   41  108 1    
    82   41  109 1    
    83   42   43 2    
    84   42   44 am   BACKBONE|DICT|INTERRES
    85   44   45 1    
    86   44  110 1    
    87   45   46 1    
    88   45   47 1    
    89   45  111 1    
    90   46  112 1    
    91   46  113 1    
    92   46  114 1    
    93   47   48 2    
    94   47   49 am   BACKBONE|DICT|INTERRES
    95   49   50 1    
    96   49  115 1    
    97   50   51 1    
    98   50   52 1    
    99   50  116 1    
   100   51  117 1    
   101   51  118 1    
   102   51  119 1    
   103   52   53 2    
   104   52   54 am   BACKBONE|DICT|INTERRES
   105   54   55 1    
   106   54  120 1    
   107   55   56 1    
   108   55   57 1    
   109   55  121 1    
   110   56  122 1    
   111   56  123 1    
   112   56  124 1    
   113   57   58 2    
   114   57   59 am   BACKBONE|DICT|INTERRES
   115   59   60 1    
   116   59  125 1    
   117   60   61 1    
   118   60   62 1    
   119   60  126 1    
   120   61  127 1    
   121   61  128 1    
   122   61  129 1    
   123   62   63 2    
   124   62   64 am   BACKBONE|DICT|INTERRES
   125   64   65 1    
   126   64  130 1    
   127   65   66 1    
   128   65   69 1    
   129   65  131 1    
   130   66   67 am   BACKBONE|DICT|INTERRES
   131   66   68 2    
   132   67  132 1    
   133   67  133 1    
   134   69   70 1    
   135   69  134 1    
   136   69  135 1    
   137   70   71 1    
   138   71  136 1    
   139   71  137 1    
@<TRIPOS>SUBSTRUCTURE
     1 UNK         1 GROUP             0       ****    0 ROOT    
