@<TRIPOS>MOLECULE
3R136
137   139    1
SMALL
USER_CHARGES


@<TRIPOS>ATOM
      1 CA         26.9490   21.2651    6.3903 C.3       0 UNK        -0.1979 
      2 C          27.8447   21.3776    5.1653 C.2       0 UNK         0.4864 
      3 O          29.0688   21.3387    5.2971 O.2       0 UNK        -0.5359 
      4 N          27.2450   21.5129    3.9785 N.am      1 UNK        -0.4318 
      5 CA         27.9202   21.6083    2.6869 C.3       1 UNK         0.0824 
      6 C6         28.4333   23.0462    2.4097 C.3       12 UNK        -0.0944 
      7 S7         29.7118   23.1174    1.1087 S.3       12 UNK        -0.2672 
      8 C8         29.6196   24.8633    0.5954 C.3       12 UNK         0.0333 
      9 C9         30.0989   25.8074    1.6883 C.ar      12 UNK        -0.0807 
     10 C10        31.4460   26.1713    1.7655 C.ar      12 UNK        -0.0894 
     11 C11        31.8893   27.0398    2.7676 C.ar      12 UNK        -0.0804 
     12 C12        30.9694   27.5666    3.6797 C.ar      12 UNK        -0.0824 
     13 C13        29.6174   27.2152    3.6115 C.ar      12 UNK        -0.0762 
     14 C14        29.1930   26.3244    2.6187 C.ar      12 UNK        -0.0782 
     15 C15        28.6347   27.7779    4.6350 C.3       12 UNK         0.0230 
     16 S16        27.0601   28.3446    3.9062 S.3       12 UNK        -0.2608 
     17 C17        27.6022   29.7495    2.8742 C.3       12 UNK        -0.0989 
     18 CA         27.8044   29.3643    1.3836 C.3       5 UNK         0.0716 
     19 N          26.6149   28.7267    0.8065 N.am      5 UNK        -0.4135 
     20 C          26.6060   27.9205   -0.2615 C.2       4 UNK         0.5031 
     21 O          27.6098   27.6661   -0.9343 O.2       4 UNK        -0.5229 
     22 CA         25.2389   27.3433   -0.6700 C.3       4 UNK         0.0329 
     23 CB         24.4562   28.3675   -1.5087 C.3       4 UNK        -0.2001 
     24 N          25.3862   26.1096   -1.4455 N.am      4 UNK        -0.4303 
     25 C          25.8232   24.9478   -0.9446 C.2       3 UNK         0.5044 
     26 O          26.0176   24.7478    0.2575 O.2       3 UNK        -0.5152 
     27 CA         26.1036   23.8356   -1.9655 C.3       3 UNK         0.0319 
     28 CB         27.2245   24.2383   -2.9431 C.3       3 UNK        -0.2001 
     29 N          26.5104   22.6223   -1.2627 N.am      3 UNK        -0.4354 
     30 C          26.1464   21.3726   -1.5711 C.2       2 UNK         0.4964 
     31 O          25.4082   21.0935   -2.5172 O.2       2 UNK        -0.5047 
     32 CA         26.7102   20.2293   -0.7025 C.3       2 UNK         0.0288 
     33 CB         27.6122   19.3070   -1.5418 C.3       2 UNK        -0.2113 
     34 N          27.4732   20.6944    0.4606 N.am      2 UNK        -0.4145 
     35 C          26.9354   21.1143    1.6123 C.2       1 UNK         0.5006 
     36 O          25.7210   21.1302    1.8369 O.2       1 UNK        -0.5103 
     37 C          28.2863   30.5582    0.5319 C.2       5 UNK         0.5055 
     38 O          28.3422   31.6867    1.0230 O.2       5 UNK        -0.5220 
     39 N          28.6508   30.2884   -0.7290 N.am      6 UNK        -0.4450 
     40 CA         29.1727   31.2572   -1.7012 C.3       6 UNK         0.0367 
     41 CB         29.3283   30.5657   -3.0648 C.3       6 UNK        -0.1929 
     42 C          30.4979   31.9186   -1.2753 C.2       6 UNK         0.5070 
     43 O          30.7962   33.0241   -1.7269 O.2       6 UNK        -0.5237 
     44 N          31.2514   31.2470   -0.3937 N.am      7 UNK        -0.4739 
     45 CA         32.4536   31.7661    0.2613 C.3       7 UNK         0.0276 
     46 CB         33.2086   30.5898    0.9036 C.3       7 UNK        -0.1927 
     47 C          32.1647   32.8459    1.3231 C.2       7 UNK         0.5013 
     48 O          33.1017   33.5332    1.7326 O.2       7 UNK        -0.5193 
     49 N          30.9039   32.9574    1.7752 N.am      8 UNK        -0.4253 
     50 CA         30.3689   33.8191    2.8404 C.3       8 UNK         0.0242 
     51 CB         30.5671   35.3147    2.5239 C.3       8 UNK        -0.2000 
     52 C          30.8838   33.4638    4.2470 C.2       8 UNK         0.4948 
     53 O          30.0761   33.2812    5.1590 O.2       8 UNK        -0.5275 
     54 N          32.2078   33.3630    4.3950 N.am      9 UNK        -0.4246 
     55 CA         32.8978   32.8798    5.5876 C.3       9 UNK         0.0261 
     56 CB         34.3456   33.3988    5.5535 C.3       9 UNK        -0.1959 
     57 C          32.8793   31.3430    5.6572 C.2       9 UNK         0.5033 
     58 O          32.6402   30.6741    4.6478 O.2       9 UNK        -0.5390 
     59 N          33.1722   30.8128    6.8508 N.am      10 UNK        -0.4215 
     60 CA         33.3814   29.3847    7.0976 C.3       10 UNK         0.0240 
     61 CB         33.3732   29.1353    8.6155 C.3       10 UNK        -0.1982 
     62 C          34.6968   28.8832    6.4730 C.2       10 UNK         0.4970 
     63 O          35.6096   29.6766    6.2280 O.2       10 UNK        -0.4916 
     64 N          34.7748   27.5685    6.2613 N.am      11 UNK        -0.4279 
     65 CA         35.9214   26.8666    5.6733 C.3       11 UNK         0.1003 
     66 C          36.1306   25.4759    6.3318 C.2       11 UNK         0.5709 
     67 N          37.2555   24.8255    6.0659 N.am      11 UNK        -0.7358 
     68 O          35.2897   24.9796    7.0811 O.2       11 UNK        -0.4999 
     69 C69        35.8323   26.8099    4.1211 C.3       12 UNK        -0.0954 
     70 S70        34.3228   25.9829    3.5084 S.3       12 UNK        -0.2268 
     71 C71        33.3642   27.3946    2.8773 C.3       12 UNK         0.0203 
     72 H72        27.1653   22.0733    7.0885 H         1 UNK         0.0888 
     73 H73        25.8922   21.3175    6.1285 H         1 UNK         0.0888 
     74 H74        27.1258   20.3179    6.8991 H         1 UNK         0.0888 
     75 H75        26.2346   21.4908    3.9013 H         1 UNK         0.3017 
     76 H76        28.7670   20.9179    2.7017 H         1 UNK         0.0873 
     77 H77        27.6049   23.7111    2.1600 H         1 UNK         0.0745 
     78 H78        28.8865   23.4595    3.3122 H         1 UNK         0.0745 
     79 H79        28.6003   25.1128    0.3031 H         1 UNK         0.0705 
     80 H80        30.2274   24.9976   -0.3005 H         1 UNK         0.0705 
     81 H81        32.1552   25.7635    1.0581 H         1 UNK         0.1334 
     82 H82        31.3112   28.2445    4.4503 H         1 UNK         0.1417 
     83 H83        28.1504   26.0431    2.5606 H         1 UNK         0.1562 
     84 H84        29.0816   28.6056    5.1885 H         1 UNK         0.0748 
     85 H85        28.4180   26.9998    5.3679 H         1 UNK         0.0748 
     86 H86        28.5229   30.1629    3.2918 H         1 UNK         0.0940 
     87 H87        26.8522   30.5376    2.9658 H         1 UNK         0.0940 
     88 H88        28.6184   28.6398    1.3460 H         1 UNK         0.0703 
     89 H89        25.7466   28.9050    1.2898 H         1 UNK         0.3081 
     90 H90        24.6707   27.1158    0.2347 H         1 UNK         0.0719 
     91 H91        24.9894   28.6326   -2.4229 H         1 UNK         0.0809 
     92 H92        23.4758   27.9832   -1.7912 H         1 UNK         0.0809 
     93 H93        24.2904   29.2899   -0.9505 H         1 UNK         0.0809 
     94 H94        25.2806   26.1944   -2.4457 H         1 UNK         0.2990 
     95 H95        25.1802   23.6573   -2.5207 H         1 UNK         0.0690 
     96 H96        27.4440   23.4340   -3.6456 H         1 UNK         0.0788 
     97 H97        28.1481   24.4816   -2.4155 H         1 UNK         0.0788 
     98 H98        26.9470   25.1116   -3.5342 H         1 UNK         0.0788 
     99 H99        27.0453   22.7820   -0.4197 H         1 UNK         0.2993 
    100 H100       25.8569   19.6443   -0.3516 H         1 UNK         0.0949 
    101 H101       28.4805   19.8390   -1.9329 H         1 UNK         0.0767 
    102 H102       27.9715   18.4615   -0.9546 H         1 UNK         0.0767 
    103 H103       27.0695   18.8972   -2.3950 H         1 UNK         0.0767 
    104 H104       28.4773   20.7404    0.3515 H         1 UNK         0.3013 
    105 H105       28.5265   29.3296   -1.0480 H         1 UNK         0.3121 
    106 H106       28.4323   32.0535   -1.8014 H         1 UNK         0.0774 
    107 H107       29.6870   31.2667   -3.8199 H         1 UNK         0.0815 
    108 H108       30.0411   29.7413   -3.0196 H         1 UNK         0.0815 
    109 H109       28.3771   30.1682   -3.4194 H         1 UNK         0.0815 
    110 H110       30.9343   30.3342   -0.1014 H         1 UNK         0.2987 
    111 H111       33.0938   32.2182   -0.4995 H         1 UNK         0.0949 
    112 H112       33.4724   29.8323    0.1655 H         1 UNK         0.0806 
    113 H113       34.1373   30.9266    1.3666 H         1 UNK         0.0806 
    114 H114       32.6156   30.1107    1.6843 H         1 UNK         0.0806 
    115 H115       30.2068   32.3450    1.3631 H         1 UNK         0.3010 
    116 H116       29.2938   33.6312    2.8481 H         1 UNK         0.0829 
    117 H117       30.1387   35.5732    1.5555 H         1 UNK         0.0813 
    118 H118       30.0755   35.9369    3.2728 H         1 UNK         0.0813 
    119 H119       31.6198   35.5979    2.5107 H         1 UNK         0.0813 
    120 H120       32.7694   33.4758    3.5543 H         1 UNK         0.3038 
    121 H121       32.3968   33.2776    6.4728 H         1 UNK         0.0769 
    122 H122       34.8980   33.0933    6.4430 H         1 UNK         0.0811 
    123 H123       34.3758   34.4878    5.5135 H         1 UNK         0.0811 
    124 H124       34.8881   33.0166    4.6875 H         1 UNK         0.0811 
    125 H125       33.3931   31.4358    7.6139 H         1 UNK         0.3204 
    126 H126       32.5528   28.8347    6.6461 H         1 UNK         0.0748 
    127 H127       34.1880   29.6609    9.1156 H         1 UNK         0.0771 
    128 H128       32.4358   29.4622    9.0663 H         1 UNK         0.0771 
    129 H129       33.4844   28.0739    8.8414 H         1 UNK         0.0771 
    130 H130       34.0190   26.9620    6.5489 H         1 UNK         0.2980 
    131 H131       36.8201   27.4304    5.9311 H         1 UNK         0.0545 
    132 H132       37.9545   25.2184    5.4550 H         1 UNK         0.3459 
    133 H133       37.4074   23.9210    6.4840 H         1 UNK         0.3459 
    134 H134       36.6974   26.2915    3.7050 H         1 UNK         0.0616 
    135 H135       35.8804   27.8213    3.7148 H         1 UNK         0.0616 
    136 H136       33.7521   27.6873    1.9009 H         1 UNK         0.0634 
    137 H137       33.4984   28.2532    3.5371 H         1 UNK         0.0634 
@<TRIPOS>BOND
     1    1    2 1    
     2    1   72 1    
     3    1   73 1    
     4    1   74 1    
     5    2    3 2    
     6    2    4 am   BACKBONE|DICT|INTERRES
     7    4    5 1    
     8    4   75 1    
     9    5    6 1    
    10    5   35 1    
    11    5   76 1    
    12    6    7 1    
    13    6   77 1    
    14    6   78 1    
    15    7    8 1    
    16    8    9 1    
    17    8   79 1    
    18    8   80 1    
    19    9   10 ar   
    20    9   14 ar   
    21   10   11 ar   
    22   10   81 1    
    23   11   12 ar   
    24   11   71 1    
    25   12   13 ar   
    26   12   82 1    
    27   13   14 ar   
    28   13   15 1    
    29   14   83 1    
    30   15   16 1    
    31   15   84 1    
    32   15   85 1    
    33   16   17 1    
    34   17   18 1    
    35   17   86 1    
    36   17   87 1    
    37   18   19 1    
    38   18   37 1    
    39   18   88 1    
    40   19   20 am   BACKBONE|DICT|INTERRES
    41   19   89 1    
    42   20   21 2    
    43   20   22 1    
    44   22   23 1    
    45   22   24 1    
    46   22   90 1    
    47   23   91 1    
    48   23   92 1    
    49   23   93 1    
    50   24   25 am   BACKBONE|DICT|INTERRES
    51   24   94 1    
    52   25   26 2    
    53   25   27 1    
    54   27   28 1    
    55   27   29 1    
    56   27   95 1    
    57   28   96 1    
    58   28   97 1    
    59   28   98 1    
    60   29   30 am   BACKBONE|DICT|INTERRES
    61   29   99 1    
    62   30   31 2    
    63   30   32 1    
    64   32   33 1    
    65   32   34 1    
    66   32  100 1    
    67   33  101 1    
    68   33  102 1    
    69   33  103 1    
    70   34   35 am   BACKBONE|DICT|INTERRES
    71   34  104 1    
    72   35   36 2    
    73   37   38 2    
    74   37   39 am   BACKBONE|DICT|INTERRES
    75   39   40 1    
    76   39  105 1    
    77   40   41 1    
    78   40   42 1    
    79   40  106 1    
    80   41  107 1    
    81   41  108 1    
    82   41  109 1    
    83   42   43 2    
    84   42   44 am   BACKBONE|DICT|INTERRES
    85   44   45 1    
    86   44  110 1    
    87   45   46 1    
    88   45   47 1    
    89   45  111 1    
    90   46  112 1    
    91   46  113 1    
    92   46  114 1    
    93   47   48 2    
    94   47   49 am   BACKBONE|DICT|INTERRES
    95   49   50 1    
    96   49  115 1    
    97   50   51 1    
    98   50   52 1    
    99   50  116 1    
   100   51  117 1    
   101   51  118 1    
   102   51  119 1    
   103   52   53 2    
   104   52   54 am   BACKBONE|DICT|INTERRES
   105   54   55 1    
   106   54  120 1    
   107   55   56 1    
   108   55   57 1    
   109   55  121 1    
   110   56  122 1    
   111   56  123 1    
   112   56  124 1    
   113   57   58 2    
   114   57   59 am   BACKBONE|DICT|INTERRES
   115   59   60 1    
   116   59  125 1    
   117   60   61 1    
   118   60   62 1    
   119   60  126 1    
   120   61  127 1    
   121   61  128 1    
   122   61  129 1    
   123   62   63 2    
   124   62   64 am   BACKBONE|DICT|INTERRES
   125   64   65 1    
   126   64  130 1    
   127   65   66 1    
   128   65   69 1    
   129   65  131 1    
   130   66   67 am   BACKBONE|DICT|INTERRES
   131   66   68 2    
   132   67  132 1    
   133   67  133 1    
   134   69   70 1    
   135   69  134 1    
   136   69  135 1    
   137   70   71 1    
   138   71  136 1    
   139   71  137 1    
@<TRIPOS>SUBSTRUCTURE
     1 UNK         1 GROUP             0       ****    0 ROOT    
