@<TRIPOS>MOLECULE
3R136
137   139    1
SMALL
USER_CHARGES


@<TRIPOS>ATOM
      1 CA         27.5220   20.3255    0.0955 C.3       0 UNK        -0.1979 
      2 C          27.4093   21.6984    0.7382 C.2       0 UNK         0.4864 
      3 O          26.6645   22.5467    0.2434 O.2       0 UNK        -0.5359 
      4 N          28.1217   21.9239    1.8521 N.am      1 UNK        -0.4318 
      5 CA         28.2312   23.2087    2.5628 C.3       1 UNK         0.0824 
      6 C6         29.3516   23.1872    3.6389 C.3       12 UNK        -0.0944 
      7 S7         31.0283   22.8059    3.0153 S.3       12 UNK        -0.2672 
      8 C8         31.2691   23.9230    1.5903 C.3       12 UNK         0.0333 
      9 C9         31.4934   25.3820    1.9783 C.ar      12 UNK        -0.0807 
     10 C10        32.7430   25.9742    1.7769 C.ar      12 UNK        -0.0894 
     11 C11        32.9405   27.3363    2.0257 C.ar      12 UNK        -0.0804 
     12 C12        31.8691   28.1148    2.4779 C.ar      12 UNK        -0.0824 
     13 C13        30.6128   27.5357    2.6898 C.ar      12 UNK        -0.0762 
     14 C14        30.4416   26.1694    2.4537 C.ar      12 UNK        -0.0782 
     15 C15        29.4254   28.3789    3.1470 C.3       12 UNK         0.0230 
     16 S16        27.9766   28.2071    2.0449 S.3       12 UNK        -0.2608 
     17 C17        28.5996   28.9958    0.5276 C.3       12 UNK        -0.0989 
     18 CA         29.2730   27.9806   -0.4280 C.3       5 UNK         0.0716 
     19 N          28.3040   27.0861   -1.0591 N.am      5 UNK        -0.4135 
     20 C          28.5922   25.8684   -1.5298 C.2       4 UNK         0.5031 
     21 O          29.7118   25.3574   -1.4594 O.2       4 UNK        -0.5229 
     22 CA         27.4267   25.0862   -2.1643 C.3       4 UNK         0.0329 
     23 CB         27.8656   23.7154   -2.7142 C.3       4 UNK        -0.2001 
     24 N          26.3154   24.8879   -1.2270 N.am      4 UNK        -0.4303 
     25 C          25.3644   25.7959   -0.9668 C.2       3 UNK         0.5044 
     26 O          25.3867   26.9385   -1.4281 O.2       3 UNK        -0.5152 
     27 CA         24.1870   25.3857   -0.0688 C.3       3 UNK         0.0319 
     28 CB         23.0647   24.7480   -0.9071 C.3       3 UNK        -0.2001 
     29 N          24.5611   24.4866    1.0275 N.am      3 UNK        -0.4354 
     30 C          23.9661   24.4912    2.2327 C.2       2 UNK         0.4964 
     31 O          23.0467   25.2537    2.5349 O.2       2 UNK        -0.5047 
     32 CA         24.4524   23.4788    3.2913 C.3       2 UNK         0.0288 
     33 CB         23.5045   22.2696    3.3528 C.3       2 UNK        -0.2113 
     34 N          25.8145   23.0030    3.0548 N.am      2 UNK        -0.4145 
     35 C          26.9131   23.7634    3.1492 C.2       1 UNK         0.5006 
     36 O          26.9082   24.8938    3.6379 O.2       1 UNK        -0.5103 
     37 C          30.1390   28.7158   -1.4627 C.2       5 UNK         0.5055 
     38 O          29.6628   29.0482   -2.5509 O.2       5 UNK        -0.5220 
     39 N          31.3807   29.0064   -1.0557 N.am      6 UNK        -0.4450 
     40 CA         32.3487   29.8359   -1.7774 C.3       6 UNK         0.0367 
     41 CB         33.4617   28.9362   -2.3456 C.3       6 UNK        -0.1929 
     42 C          32.9105   30.9579   -0.8794 C.2       6 UNK         0.5070 
     43 O          33.9381   31.5461   -1.2174 O.2       6 UNK        -0.5237 
     44 N          32.2373   31.2447    0.2422 N.am      7 UNK        -0.4739 
     45 CA         32.5448   32.3124    1.1922 C.3       7 UNK         0.0276 
     46 CB         33.6870   31.8867    2.1356 C.3       7 UNK        -0.1927 
     47 C          31.2639   32.6462    1.9707 C.2       7 UNK         0.5013 
     48 O          30.2727   31.9216    1.8525 O.2       7 UNK        -0.5193 
     49 N          31.3041   33.7310    2.7553 N.am      8 UNK        -0.4253 
     50 CA         30.1721   34.2428    3.5404 C.3       8 UNK         0.0242 
     51 CB         30.5036   35.6665    4.0194 C.3       8 UNK        -0.2000 
     52 C          29.7555   33.3596    4.7349 C.2       8 UNK         0.4948 
     53 O          28.6561   33.5444    5.2594 O.2       8 UNK        -0.5275 
     54 N          30.6249   32.4342    5.1507 N.am      9 UNK        -0.4246 
     55 CA         30.4048   31.4519    6.2071 C.3       9 UNK         0.0261 
     56 CB         30.8723   32.0290    7.5552 C.3       9 UNK        -0.1959 
     57 C          31.1871   30.1866    5.8384 C.2       9 UNK         0.5033 
     58 O          32.0554   30.2522    4.9642 O.2       9 UNK        -0.5390 
     59 N          30.8663   29.0658    6.5009 N.am      10 UNK        -0.4215 
     60 CA         31.4977   27.7550    6.3111 C.3       10 UNK         0.0240 
     61 CB         30.8062   26.7157    7.2095 C.3       10 UNK        -0.1982 
     62 C          33.0125   27.8048    6.5688 C.2       10 UNK         0.4970 
     63 O          33.4273   27.9645    7.7186 O.2       10 UNK        -0.4916 
     64 N          33.7958   27.7087    5.4891 N.am      11 UNK        -0.4279 
     65 CA         35.2550   27.8691    5.5030 C.3       11 UNK         0.1003 
     66 C          36.0576   26.6360    6.0139 C.2       11 UNK         0.5709 
     67 N          35.4348   25.4871    6.2503 N.am      11 UNK        -0.7358 
     68 O          37.2658   26.7309    6.2174 O.2       11 UNK        -0.4999 
     69 C69        35.7679   28.4181    4.1458 C.3       12 UNK        -0.0954 
     70 S70        35.6308   27.2499    2.7476 S.3       12 UNK        -0.2268 
     71 C71        34.2970   27.9634    1.7316 C.3       12 UNK         0.0203 
     72 H72        28.2061   19.6749    0.6400 H         1 UNK         0.0888 
     73 H73        26.5448   19.8446    0.0655 H         1 UNK         0.0888 
     74 H74        27.8860   20.4220   -0.9269 H         1 UNK         0.0888 
     75 H75        28.7055   21.1845    2.2180 H         1 UNK         0.3017 
     76 H76        28.4860   23.9420    1.7997 H         1 UNK         0.0873 
     77 H77        29.1108   22.4451    4.4023 H         1 UNK         0.0745 
     78 H78        29.4113   24.1362    4.1742 H         1 UNK         0.0745 
     79 H79        32.1375   23.5563    1.0409 H         1 UNK         0.0705 
     80 H80        30.4446   23.8447    0.8830 H         1 UNK         0.0705 
     81 H81        33.5637   25.3806    1.3971 H         1 UNK         0.1334 
     82 H82        32.0057   29.1730    2.6503 H         1 UNK         0.1417 
     83 H83        29.4602   25.7467    2.5932 H         1 UNK         0.1562 
     84 H84        29.6977   29.4332    3.2202 H         1 UNK         0.0748 
     85 H85        29.1369   28.0638    4.1505 H         1 UNK         0.0748 
     86 H86        29.2912   29.7846    0.8236 H         1 UNK         0.0940 
     87 H87        27.7710   29.5028    0.0295 H         1 UNK         0.0940 
     88 H88        29.9554   27.3559    0.1436 H         1 UNK         0.0703 
     89 H89        27.3542   27.4259   -1.1616 H         1 UNK         0.3081 
     90 H90        27.0712   25.6759   -3.0122 H         1 UNK         0.0719 
     91 H91        28.6403   23.8298   -3.4735 H         1 UNK         0.0809 
     92 H92        28.2719   23.0763   -1.9299 H         1 UNK         0.0809 
     93 H93        27.0327   23.1876   -3.1788 H         1 UNK         0.0809 
     94 H94        26.2895   23.9793   -0.7682 H         1 UNK         0.2990 
     95 H95        23.8030   26.3164    0.3553 H         1 UNK         0.0690 
     96 H96        22.1703   24.5765   -0.3079 H         1 UNK         0.0788 
     97 H97        23.3739   23.7910   -1.3294 H         1 UNK         0.0788 
     98 H98        22.7778   25.3958   -1.7368 H         1 UNK         0.0788 
     99 H99        25.3079   23.8217    0.8482 H         1 UNK         0.2993 
    100 H100       24.4318   23.9839    4.2596 H         1 UNK         0.0949 
    101 H101       23.7937   21.5779    4.1444 H         1 UNK         0.0767 
    102 H102       22.4811   22.5863    3.5596 H         1 UNK         0.0767 
    103 H103       23.4913   21.7186    2.4114 H         1 UNK         0.0767 
    104 H104       25.9102   22.0913    2.6316 H         1 UNK         0.3013 
    105 H105       31.6849   28.6670   -0.1531 H         1 UNK         0.3121 
    106 H106       31.8577   30.3383   -2.6135 H         1 UNK         0.0774 
    107 H107       34.0261   28.4429   -1.5547 H         1 UNK         0.0815 
    108 H108       34.1699   29.5139   -2.9409 H         1 UNK         0.0815 
    109 H109       33.0513   28.1636   -2.9959 H         1 UNK         0.0815 
    110 H110       31.3451   30.8008    0.4195 H         1 UNK         0.2987 
    111 H111       32.8432   33.2034    0.6350 H         1 UNK         0.0949 
    112 H112       33.3956   31.0546    2.7752 H         1 UNK         0.0806 
    113 H113       34.5758   31.5879    1.5798 H         1 UNK         0.0806 
    114 H114       33.9838   32.7061    2.7907 H         1 UNK         0.0806 
    115 H115       32.1601   34.2654    2.8018 H         1 UNK         0.3010 
    116 H116       29.3074   34.3014    2.8755 H         1 UNK         0.0829 
    117 H117       29.6689   36.0971    4.5747 H         1 UNK         0.0813 
    118 H118       31.3726   35.6783    4.6785 H         1 UNK         0.0813 
    119 H119       30.7070   36.3321    3.1803 H         1 UNK         0.0813 
    120 H120       31.4759   32.2796    4.6241 H         1 UNK         0.3038 
    121 H121       29.3439   31.1972    6.2577 H         1 UNK         0.0769 
    122 H122       30.3239   32.9366    7.8084 H         1 UNK         0.0811 
    123 H123       31.9351   32.2745    7.5397 H         1 UNK         0.0811 
    124 H124       30.7124   31.3187    8.3671 H         1 UNK         0.0811 
    125 H125       30.1615   29.1194    7.2220 H         1 UNK         0.3204 
    126 H126       31.3355   27.4505    5.2785 H         1 UNK         0.0748 
    127 H127       31.2574   25.7305    7.0833 H         1 UNK         0.0771 
    128 H128       30.8832   26.9769    8.2658 H         1 UNK         0.0771 
    129 H129       29.7487   26.6188    6.9625 H         1 UNK         0.0771 
    130 H130       33.3772   27.5881    4.5780 H         1 UNK         0.2980 
    131 H131       35.4703   28.6515    6.2335 H         1 UNK         0.0545 
    132 H132       35.9636   24.6983    6.5870 H         1 UNK         0.3459 
    133 H133       34.4457   25.4005    6.0834 H         1 UNK         0.3459 
    134 H134       36.8183   28.7001    4.2354 H         1 UNK         0.0616 
    135 H135       35.2434   29.3438    3.9043 H         1 UNK         0.0616 
    136 H136       34.2710   29.0466    1.8429 H         1 UNK         0.0634 
    137 H137       34.5394   27.7778    0.6851 H         1 UNK         0.0634 
@<TRIPOS>BOND
     1    1    2 1    
     2    1   72 1    
     3    1   73 1    
     4    1   74 1    
     5    2    3 2    
     6    2    4 am   BACKBONE|DICT|INTERRES
     7    4    5 1    
     8    4   75 1    
     9    5    6 1    
    10    5   35 1    
    11    5   76 1    
    12    6    7 1    
    13    6   77 1    
    14    6   78 1    
    15    7    8 1    
    16    8    9 1    
    17    8   79 1    
    18    8   80 1    
    19    9   10 ar   
    20    9   14 ar   
    21   10   11 ar   
    22   10   81 1    
    23   11   12 ar   
    24   11   71 1    
    25   12   13 ar   
    26   12   82 1    
    27   13   14 ar   
    28   13   15 1    
    29   14   83 1    
    30   15   16 1    
    31   15   84 1    
    32   15   85 1    
    33   16   17 1    
    34   17   18 1    
    35   17   86 1    
    36   17   87 1    
    37   18   19 1    
    38   18   37 1    
    39   18   88 1    
    40   19   20 am   BACKBONE|DICT|INTERRES
    41   19   89 1    
    42   20   21 2    
    43   20   22 1    
    44   22   23 1    
    45   22   24 1    
    46   22   90 1    
    47   23   91 1    
    48   23   92 1    
    49   23   93 1    
    50   24   25 am   BACKBONE|DICT|INTERRES
    51   24   94 1    
    52   25   26 2    
    53   25   27 1    
    54   27   28 1    
    55   27   29 1    
    56   27   95 1    
    57   28   96 1    
    58   28   97 1    
    59   28   98 1    
    60   29   30 am   BACKBONE|DICT|INTERRES
    61   29   99 1    
    62   30   31 2    
    63   30   32 1    
    64   32   33 1    
    65   32   34 1    
    66   32  100 1    
    67   33  101 1    
    68   33  102 1    
    69   33  103 1    
    70   34   35 am   BACKBONE|DICT|INTERRES
    71   34  104 1    
    72   35   36 2    
    73   37   38 2    
    74   37   39 am   BACKBONE|DICT|INTERRES
    75   39   40 1    
    76   39  105 1    
    77   40   41 1    
    78   40   42 1    
    79   40  106 1    
    80   41  107 1    
    81   41  108 1    
    82   41  109 1    
    83   42   43 2    
    84   42   44 am   BACKBONE|DICT|INTERRES
    85   44   45 1    
    86   44  110 1    
    87   45   46 1    
    88   45   47 1    
    89   45  111 1    
    90   46  112 1    
    91   46  113 1    
    92   46  114 1    
    93   47   48 2    
    94   47   49 am   BACKBONE|DICT|INTERRES
    95   49   50 1    
    96   49  115 1    
    97   50   51 1    
    98   50   52 1    
    99   50  116 1    
   100   51  117 1    
   101   51  118 1    
   102   51  119 1    
   103   52   53 2    
   104   52   54 am   BACKBONE|DICT|INTERRES
   105   54   55 1    
   106   54  120 1    
   107   55   56 1    
   108   55   57 1    
   109   55  121 1    
   110   56  122 1    
   111   56  123 1    
   112   56  124 1    
   113   57   58 2    
   114   57   59 am   BACKBONE|DICT|INTERRES
   115   59   60 1    
   116   59  125 1    
   117   60   61 1    
   118   60   62 1    
   119   60  126 1    
   120   61  127 1    
   121   61  128 1    
   122   61  129 1    
   123   62   63 2    
   124   62   64 am   BACKBONE|DICT|INTERRES
   125   64   65 1    
   126   64  130 1    
   127   65   66 1    
   128   65   69 1    
   129   65  131 1    
   130   66   67 am   BACKBONE|DICT|INTERRES
   131   66   68 2    
   132   67  132 1    
   133   67  133 1    
   134   69   70 1    
   135   69  134 1    
   136   69  135 1    
   137   70   71 1    
   138   71  136 1    
   139   71  137 1    
@<TRIPOS>SUBSTRUCTURE
     1 UNK         1 GROUP             0       ****    0 ROOT    
