@<TRIPOS>MOLECULE
3R136
137   139    1
SMALL
USER_CHARGES


@<TRIPOS>ATOM
      1 CA         30.0565   28.5521   -5.0443 C.3       0 UNK        -0.1979 
      2 C          30.0241   27.6666   -3.8074 C.2       0 UNK         0.4864 
      3 O          30.7215   26.6522   -3.7675 O.2       0 UNK        -0.5359 
      4 N          29.2234   28.0489   -2.8026 N.am      1 UNK        -0.4318 
      5 CA         29.0114   27.3334   -1.5410 C.3       1 UNK         0.0824 
      6 C6         30.2999   27.2453   -0.6709 C.3       12 UNK        -0.0944 
      7 S7         29.9149   26.9944    1.0910 S.3       12 UNK        -0.2672 
      8 C8         30.9129   25.5367    1.5056 C.3       12 UNK         0.0333 
      9 C9         30.6194   25.1188    2.9342 C.ar      12 UNK        -0.0807 
     10 C10        31.3069   25.7095    3.9967 C.ar      12 UNK        -0.0894 
     11 C11        30.9942   25.3728    5.3170 C.ar      12 UNK        -0.0804 
     12 C12        29.9648   24.4599    5.5702 C.ar      12 UNK        -0.0824 
     13 C13        29.2627   23.8711    4.5120 C.ar      12 UNK        -0.0762 
     14 C14        29.6203   24.1791    3.1965 C.ar      12 UNK        -0.0782 
     15 C15        28.0973   22.9260    4.7875 C.3       12 UNK         0.0230 
     16 S16        26.5322   23.4815    4.0192 S.3       12 UNK        -0.2608 
     17 C17        26.3981   25.1991    4.6193 C.3       12 UNK        -0.0989 
     18 CA         26.7484   26.2238    3.5080 C.3       5 UNK         0.0716 
     19 N          25.7090   26.2823    2.4762 N.am      5 UNK        -0.4135 
     20 C          25.7403   27.0291    1.3643 C.2       4 UNK         0.5031 
     21 O          26.6360   27.8249    1.0838 O.2       4 UNK        -0.5229 
     22 CA         24.5991   26.7877    0.3642 C.3       4 UNK         0.0329 
     23 CB         24.5069   27.8876   -0.7105 C.3       4 UNK        -0.2001 
     24 N          24.8013   25.4942   -0.2885 N.am      4 UNK        -0.4303 
     25 C          24.3715   24.3219    0.2002 C.2       3 UNK         0.5044 
     26 O          23.6944   24.2239    1.2248 O.2       3 UNK        -0.5152 
     27 CA         24.7637   23.0423   -0.5625 C.3       3 UNK         0.0319 
     28 CB         23.6414   22.6266   -1.5270 C.3       3 UNK        -0.2001 
     29 N          26.0186   23.1663   -1.3081 N.am      3 UNK        -0.4354 
     30 C          27.2313   23.2736   -0.7478 C.2       2 UNK         0.4964 
     31 O          27.4317   23.2257    0.4648 O.2       2 UNK        -0.5047 
     32 CA         28.4307   23.4921   -1.6880 C.3       2 UNK         0.0288 
     33 CB         28.1551   23.1338   -3.1672 C.3       2 UNK        -0.2113 
     34 N          28.9464   24.8601   -1.5694 N.am      2 UNK        -0.4145 
     35 C          28.2738   25.9997   -1.7932 C.2       1 UNK         0.5006 
     36 O          27.1055   26.0368   -2.1895 O.2       1 UNK        -0.5103 
     37 C          27.0909   27.5911    4.1304 C.2       5 UNK         0.5055 
     38 O          26.2107   28.4415    4.2859 O.2       5 UNK        -0.5220 
     39 N          28.3664   27.7258    4.5247 N.am      6 UNK        -0.4450 
     40 CA         28.9889   28.8960    5.1524 C.3       6 UNK         0.0367 
     41 CB         28.3790   29.1778    6.5417 C.3       6 UNK        -0.1929 
     42 C          29.0081   30.1304    4.2289 C.2       6 UNK         0.5070 
     43 O          28.7129   31.2415    4.6720 O.2       6 UNK        -0.5237 
     44 N          29.3777   29.9087    2.9633 N.am      7 UNK        -0.4739 
     45 CA         29.5832   30.9326    1.9403 C.3       7 UNK         0.0276 
     46 CB         28.5153   30.7555    0.8481 C.3       7 UNK        -0.1927 
     47 C          30.9994   30.7952    1.3601 C.2       7 UNK         0.5013 
     48 O          31.7162   29.8480    1.6986 O.2       7 UNK        -0.5193 
     49 N          31.3851   31.7493    0.4997 N.am      8 UNK        -0.4253 
     50 CA         32.7026   31.8701   -0.1387 C.3       8 UNK         0.0242 
     51 CB         32.9369   30.7176   -1.1448 C.3       8 UNK        -0.2000 
     52 C          33.8100   32.0239    0.9218 C.2       8 UNK         0.4948 
     53 O          33.8888   33.0814    1.5487 O.2       8 UNK        -0.5275 
     54 N          34.6123   30.9711    1.1334 N.am      9 UNK        -0.4246 
     55 CA         35.6046   30.8814    2.2098 C.3       9 UNK         0.0261 
     56 CB         36.5464   29.6984    1.9318 C.3       9 UNK        -0.1959 
     57 C          34.9762   30.7468    3.6110 C.2       9 UNK         0.5033 
     58 O          35.6413   31.0703    4.5968 O.2       9 UNK        -0.5390 
     59 N          33.7269   30.2572    3.6774 N.am      10 UNK        -0.4215 
     60 CA         32.8672   30.1290    4.8605 C.3       10 UNK         0.0240 
     61 CB         32.3386   31.5164    5.2783 C.3       10 UNK        -0.1982 
     62 C          33.4870   29.3497    6.0374 C.2       10 UNK         0.4970 
     63 O          33.1540   29.6266    7.1908 O.2       10 UNK        -0.4916 
     64 N          34.3696   28.3901    5.7246 N.am      11 UNK        -0.4279 
     65 CA         35.1673   27.6034    6.6823 C.3       11 UNK         0.1003 
     66 C          36.1783   28.4491    7.5203 C.2       11 UNK         0.5709 
     67 N          36.5424   29.6562    7.0995 N.am      11 UNK        -0.7358 
     68 O          36.6730   27.9950    8.5497 O.2       11 UNK        -0.4999 
     69 C69        34.3023   26.6353    7.5460 C.3       12 UNK        -0.0954 
     70 S70        33.4657   25.3723    6.5305 S.3       12 UNK        -0.2268 
     71 C71        31.7651   26.0141    6.4600 C.3       12 UNK         0.0203 
     72 H72        29.4055   29.4203   -4.9430 H         1 UNK         0.0888 
     73 H73        31.0705   28.9086   -5.2233 H         1 UNK         0.0888 
     74 H74        29.7344   27.9869   -5.9184 H         1 UNK         0.0888 
     75 H75        28.6538   28.8748   -2.9222 H         1 UNK         0.3017 
     76 H76        28.2942   27.9489   -0.9979 H         1 UNK         0.0873 
     77 H77        30.9989   26.4914   -1.0352 H         1 UNK         0.0745 
     78 H78        30.8410   28.1910   -0.7297 H         1 UNK         0.0745 
     79 H79        31.9720   25.7703    1.3854 H         1 UNK         0.0705 
     80 H80        30.6866   24.7201    0.8191 H         1 UNK         0.0705 
     81 H81        32.0844   26.4347    3.7965 H         1 UNK         0.1334 
     82 H82        29.7051   24.2150    6.5913 H         1 UNK         0.1417 
     83 H83        29.0737   23.7320    2.3771 H         1 UNK         0.1562 
     84 H84        27.9372   22.8114    5.8607 H         1 UNK         0.0748 
     85 H85        28.3454   21.9348    4.4059 H         1 UNK         0.0748 
     86 H86        27.0464   25.3112    5.4909 H         1 UNK         0.0940 
     87 H87        25.3844   25.3663    4.9882 H         1 UNK         0.0940 
     88 H88        27.6437   25.8914    2.9847 H         1 UNK         0.0703 
     89 H89        24.9497   25.6216    2.5768 H         1 UNK         0.3081 
     90 H90        23.6573   26.7861    0.9174 H         1 UNK         0.0719 
     91 H91        25.4144   27.9481   -1.3120 H         1 UNK         0.0809 
     92 H92        23.6697   27.7118   -1.3859 H         1 UNK         0.0809 
     93 H93        24.3556   28.8657   -0.2521 H         1 UNK         0.0809 
     94 H94        25.4220   25.4933   -1.0917 H         1 UNK         0.2990 
     95 H95        24.8892   22.2485    0.1771 H         1 UNK         0.0690 
     96 H96        23.8674   21.6779   -2.0143 H         1 UNK         0.0788 
     97 H97        23.4784   23.3746   -2.3041 H         1 UNK         0.0788 
     98 H98        22.6977   22.4987   -0.9947 H         1 UNK         0.0788 
     99 H99        25.9497   23.2391   -2.3131 H         1 UNK         0.2993 
    100 H100       29.2197   22.8283   -1.3308 H         1 UNK         0.0949 
    101 H101       27.4118   23.7859   -3.6269 H         1 UNK         0.0767 
    102 H102       29.0665   23.2143   -3.7601 H         1 UNK         0.0767 
    103 H103       27.8024   22.1060   -3.2640 H         1 UNK         0.0767 
    104 H104       29.8991   24.9407   -1.2471 H         1 UNK         0.3013 
    105 H105       28.9942   26.9536    4.3402 H         1 UNK         0.3121 
    106 H106       30.0315   28.6241    5.3151 H         1 UNK         0.0774 
    107 H107       28.9366   29.9596    7.0590 H         1 UNK         0.0815 
    108 H108       27.3435   29.5120    6.4714 H         1 UNK         0.0815 
    109 H109       28.4046   28.2905    7.1741 H         1 UNK         0.0815 
    110 H110       29.6474   28.9743    2.6811 H         1 UNK         0.2987 
    111 H111       29.4958   31.9313    2.3734 H         1 UNK         0.0949 
    112 H112       28.5863   31.5311    0.0852 H         1 UNK         0.0806 
    113 H113       28.6144   29.7926    0.3490 H         1 UNK         0.0806 
    114 H114       27.5101   30.8049    1.2676 H         1 UNK         0.0806 
    115 H115       30.7426   32.5052    0.3072 H         1 UNK         0.3010 
    116 H116       32.6919   32.8023   -0.7059 H         1 UNK         0.0829 
    117 H117       32.1718   30.7198   -1.9214 H         1 UNK         0.0813 
    118 H118       33.8995   30.8248   -1.6468 H         1 UNK         0.0813 
    119 H119       32.9160   29.7345   -0.6741 H         1 UNK         0.0813 
    120 H120       34.4604   30.1397    0.5803 H         1 UNK         0.3038 
    121 H121       36.1964   31.7993    2.2052 H         1 UNK         0.0769 
    122 H122       37.3130   29.6202    2.7043 H         1 UNK         0.0811 
    123 H123       37.0620   29.8173    0.9786 H         1 UNK         0.0811 
    124 H124       36.0096   28.7492    1.9081 H         1 UNK         0.0811 
    125 H125       33.2609   30.0228    2.8026 H         1 UNK         0.3204 
    126 H126       32.0154   29.5354    4.5321 H         1 UNK         0.0748 
    127 H127       31.5882   31.4340    6.0658 H         1 UNK         0.0771 
    128 H128       33.1399   32.1549    5.6521 H         1 UNK         0.0771 
    129 H129       31.8657   32.0276    4.4394 H         1 UNK         0.0771 
    130 H130       34.5876   28.2420    4.7510 H         1 UNK         0.2980 
    131 H131       35.8130   26.9794    6.0636 H         1 UNK         0.0545 
    132 H132       37.2049   30.1848    7.6437 H         1 UNK         0.3459 
    133 H133       36.1584   30.0555    6.2488 H         1 UNK         0.3459 
    134 H134       33.5734   27.1802    8.1473 H         1 UNK         0.0616 
    135 H135       34.9282   26.0919    8.2555 H         1 UNK         0.0616 
    136 H136       31.7767   27.0936    6.3179 H         1 UNK         0.0634 
    137 H137       31.2741   25.8334    7.4173 H         1 UNK         0.0634 
@<TRIPOS>BOND
     1    1    2 1    
     2    1   72 1    
     3    1   73 1    
     4    1   74 1    
     5    2    3 2    
     6    2    4 am   BACKBONE|DICT|INTERRES
     7    4    5 1    
     8    4   75 1    
     9    5    6 1    
    10    5   35 1    
    11    5   76 1    
    12    6    7 1    
    13    6   77 1    
    14    6   78 1    
    15    7    8 1    
    16    8    9 1    
    17    8   79 1    
    18    8   80 1    
    19    9   10 ar   
    20    9   14 ar   
    21   10   11 ar   
    22   10   81 1    
    23   11   12 ar   
    24   11   71 1    
    25   12   13 ar   
    26   12   82 1    
    27   13   14 ar   
    28   13   15 1    
    29   14   83 1    
    30   15   16 1    
    31   15   84 1    
    32   15   85 1    
    33   16   17 1    
    34   17   18 1    
    35   17   86 1    
    36   17   87 1    
    37   18   19 1    
    38   18   37 1    
    39   18   88 1    
    40   19   20 am   BACKBONE|DICT|INTERRES
    41   19   89 1    
    42   20   21 2    
    43   20   22 1    
    44   22   23 1    
    45   22   24 1    
    46   22   90 1    
    47   23   91 1    
    48   23   92 1    
    49   23   93 1    
    50   24   25 am   BACKBONE|DICT|INTERRES
    51   24   94 1    
    52   25   26 2    
    53   25   27 1    
    54   27   28 1    
    55   27   29 1    
    56   27   95 1    
    57   28   96 1    
    58   28   97 1    
    59   28   98 1    
    60   29   30 am   BACKBONE|DICT|INTERRES
    61   29   99 1    
    62   30   31 2    
    63   30   32 1    
    64   32   33 1    
    65   32   34 1    
    66   32  100 1    
    67   33  101 1    
    68   33  102 1    
    69   33  103 1    
    70   34   35 am   BACKBONE|DICT|INTERRES
    71   34  104 1    
    72   35   36 2    
    73   37   38 2    
    74   37   39 am   BACKBONE|DICT|INTERRES
    75   39   40 1    
    76   39  105 1    
    77   40   41 1    
    78   40   42 1    
    79   40  106 1    
    80   41  107 1    
    81   41  108 1    
    82   41  109 1    
    83   42   43 2    
    84   42   44 am   BACKBONE|DICT|INTERRES
    85   44   45 1    
    86   44  110 1    
    87   45   46 1    
    88   45   47 1    
    89   45  111 1    
    90   46  112 1    
    91   46  113 1    
    92   46  114 1    
    93   47   48 2    
    94   47   49 am   BACKBONE|DICT|INTERRES
    95   49   50 1    
    96   49  115 1    
    97   50   51 1    
    98   50   52 1    
    99   50  116 1    
   100   51  117 1    
   101   51  118 1    
   102   51  119 1    
   103   52   53 2    
   104   52   54 am   BACKBONE|DICT|INTERRES
   105   54   55 1    
   106   54  120 1    
   107   55   56 1    
   108   55   57 1    
   109   55  121 1    
   110   56  122 1    
   111   56  123 1    
   112   56  124 1    
   113   57   58 2    
   114   57   59 am   BACKBONE|DICT|INTERRES
   115   59   60 1    
   116   59  125 1    
   117   60   61 1    
   118   60   62 1    
   119   60  126 1    
   120   61  127 1    
   121   61  128 1    
   122   61  129 1    
   123   62   63 2    
   124   62   64 am   BACKBONE|DICT|INTERRES
   125   64   65 1    
   126   64  130 1    
   127   65   66 1    
   128   65   69 1    
   129   65  131 1    
   130   66   67 am   BACKBONE|DICT|INTERRES
   131   66   68 2    
   132   67  132 1    
   133   67  133 1    
   134   69   70 1    
   135   69  134 1    
   136   69  135 1    
   137   70   71 1    
   138   71  136 1    
   139   71  137 1    
@<TRIPOS>SUBSTRUCTURE
     1 UNK         1 GROUP             0       ****    0 ROOT    
