@<TRIPOS>MOLECULE
3R136
137   139    1
SMALL
USER_CHARGES


@<TRIPOS>ATOM
      1 CA         30.4863   22.5780   -1.7102 C.3       0 UNK        -0.1979 
      2 C          29.9152   22.2471   -0.3387 C.2       0 UNK         0.4864 
      3 O          29.7663   21.0680   -0.0142 O.2       0 UNK        -0.5359 
      4 N          29.6041   23.2820    0.4537 N.am      1 UNK        -0.4318 
      5 CA         28.9386   23.2320    1.7622 C.3       1 UNK         0.0824 
      6 C6         29.6255   22.2672    2.7751 C.3       12 UNK        -0.0944 
      7 S7         29.3078   22.6733    4.5280 S.3       12 UNK        -0.2672 
      8 C8         30.7849   23.6382    4.9761 C.3       12 UNK         0.0333 
      9 C9         30.8215   24.9901    4.2786 C.ar      12 UNK        -0.0807 
     10 C10        31.8609   25.3003    3.3974 C.ar      12 UNK        -0.0894 
     11 C11        31.9313   26.5565    2.7890 C.ar      12 UNK        -0.0804 
     12 C12        30.9267   27.4958    3.0519 C.ar      12 UNK        -0.0824 
     13 C13        29.8640   27.1879    3.9052 C.ar      12 UNK        -0.0762 
     14 C14        29.8243   25.9377    4.5269 C.ar      12 UNK        -0.0782 
     15 C15        28.7656   28.2070    4.1693 C.3       12 UNK         0.0230 
     16 S16        27.4132   28.0660    2.9539 S.3       12 UNK        -0.2608 
     17 C17        28.0754   29.0195    1.5476 C.3       12 UNK        -0.0989 
     18 CA         28.6626   28.1137    0.4403 C.3       5 UNK         0.0716 
     19 N          27.6403   27.3282   -0.2499 N.am      5 UNK        -0.4135 
     20 C          27.9092   26.2267   -0.9585 C.2       4 UNK         0.5031 
     21 O          29.0202   25.6907   -0.9790 O.2       4 UNK        -0.5229 
     22 CA         26.7459   25.6286   -1.7654 C.3       4 UNK         0.0329 
     23 CB         27.1800   24.4315   -2.6326 C.3       4 UNK        -0.2001 
     24 N          25.6582   25.2079   -0.8822 N.am      4 UNK        -0.4303 
     25 C          24.6186   25.9744   -0.5237 C.2       3 UNK         0.5044 
     26 O          24.5054   27.1551   -0.8558 O.2       3 UNK        -0.5152 
     27 CA         23.5115   25.3297    0.3328 C.3       3 UNK         0.0319 
     28 CB         22.3414   24.8827   -0.5585 C.3       3 UNK        -0.2001 
     29 N          23.9819   24.1833    1.1129 N.am      3 UNK        -0.4354 
     30 C          24.6784   24.2848    2.2517 C.2       2 UNK         0.4964 
     31 O          24.9171   25.3538    2.8131 O.2       2 UNK        -0.5047 
     32 CA         25.2387   22.9865    2.8620 C.3       2 UNK         0.0288 
     33 CB         24.6083   21.6878    2.3061 C.3       2 UNK        -0.2113 
     34 N          26.7001   22.9648    2.7379 N.am      2 UNK        -0.4145 
     35 C          27.4150   23.0144    1.6046 C.2       1 UNK         0.5006 
     36 O          26.9033   22.9550    0.4823 O.2       1 UNK        -0.5103 
     37 C          29.4423   28.9413   -0.5984 C.2       5 UNK         0.5055 
     38 O          28.8440   29.7812   -1.2742 O.2       5 UNK        -0.5220 
     39 N          30.7515   28.6831   -0.7159 N.am      6 UNK        -0.4450 
     40 CA         31.6476   29.3571   -1.6627 C.3       6 UNK         0.0367 
     41 CB         32.8910   28.4815   -1.8905 C.3       6 UNK        -0.1929 
     42 C          32.0601   30.7753   -1.2234 C.2       6 UNK         0.5070 
     43 O          32.5278   31.5500   -2.0587 O.2       6 UNK        -0.5237 
     44 N          31.8882   31.0918    0.0632 N.am      7 UNK        -0.4739 
     45 CA         32.1601   32.3867    0.6780 C.3       7 UNK         0.0276 
     46 CB         33.5945   32.3936    1.2377 C.3       7 UNK        -0.1927 
     47 C          31.1342   32.6138    1.7938 C.2       7 UNK         0.5013 
     48 O          30.4539   31.6694    2.2025 O.2       7 UNK        -0.5193 
     49 N          31.0632   33.8487    2.3053 N.am      8 UNK        -0.4253 
     50 CA         30.1965   34.2506    3.4207 C.3       8 UNK         0.0242 
     51 CB         29.9089   35.7602    3.3084 C.3       8 UNK        -0.2000 
     52 C          30.7819   33.8580    4.7960 C.2       8 UNK         0.4948 
     53 O          30.8080   34.6802    5.7141 O.2       8 UNK        -0.5275 
     54 N          31.2527   32.6135    4.9112 N.am      9 UNK        -0.4246 
     55 CA         31.8714   32.0025    6.0821 C.3       9 UNK         0.0261 
     56 CB         33.2911   32.5650    6.2930 C.3       9 UNK        -0.1959 
     57 C          31.9221   30.4910    5.8375 C.2       9 UNK         0.5033 
     58 O          31.8375   30.0614    4.6851 O.2       9 UNK        -0.5390 
     59 N          32.0864   29.7085    6.9102 N.am      10 UNK        -0.4215 
     60 CA         32.2386   28.2523    6.8585 C.3       10 UNK         0.0240 
     61 CB         31.8713   27.6560    8.2299 C.3       10 UNK        -0.1982 
     62 C          33.6570   27.8611    6.4027 C.2       10 UNK         0.4970 
     63 O          34.4844   27.4691    7.2285 O.2       10 UNK        -0.4916 
     64 N          33.9180   28.0243    5.1021 N.am      11 UNK        -0.4279 
     65 CA         35.1629   27.6549    4.4163 C.3       11 UNK         0.1003 
     66 C          35.4872   26.1306    4.4205 C.2       11 UNK         0.5709 
     67 N          36.6903   25.7549    4.0061 N.am      11 UNK        -0.7358 
     68 O          34.6786   25.2826    4.7896 O.2       11 UNK        -0.4999 
     69 C69        35.2805   28.3131    3.0055 C.3       12 UNK        -0.0954 
     70 S70        33.7491   28.5503    2.0320 S.3       12 UNK        -0.2268 
     71 C71        33.0750   26.8689    1.8268 C.3       12 UNK         0.0203 
     72 H72        29.8191   22.2144   -2.4911 H         1 UNK         0.0888 
     73 H73        30.6170   23.6511   -1.8497 H         1 UNK         0.0888 
     74 H74        31.4569   22.0999   -1.8390 H         1 UNK         0.0888 
     75 H75        29.6521   24.2132    0.0463 H         1 UNK         0.3017 
     76 H76        29.0435   24.2474    2.1469 H         1 UNK         0.0873 
     77 H77        29.3120   21.2365    2.6002 H         1 UNK         0.0745 
     78 H78        30.7055   22.2748    2.6201 H         1 UNK         0.0745 
     79 H79        31.6803   23.0549    4.7556 H         1 UNK         0.0705 
     80 H80        30.7847   23.7999    6.0549 H         1 UNK         0.0705 
     81 H81        32.6296   24.5660    3.1988 H         1 UNK         0.1334 
     82 H82        30.9660   28.4745    2.5937 H         1 UNK         0.1417 
     83 H83        29.0126   25.6968    5.2000 H         1 UNK         0.1562 
     84 H84        29.1742   29.2190    4.1701 H         1 UNK         0.0748 
     85 H85        28.3534   28.0523    5.1675 H         1 UNK         0.0748 
     86 H86        28.8304   29.7112    1.9215 H         1 UNK         0.0940 
     87 H87        27.2762   29.6462    1.1474 H         1 UNK         0.0940 
     88 H88        29.3538   27.4132    0.9098 H         1 UNK         0.0703 
     89 H89        26.7053   27.7128   -0.2805 H         1 UNK         0.3081 
     90 H90        26.3905   26.4077   -2.4433 H         1 UNK         0.0719 
     91 H91        27.5437   23.6018   -2.0266 H         1 UNK         0.0809 
     92 H92        26.3535   24.0632   -3.2403 H         1 UNK         0.0809 
     93 H93        27.9831   24.7132   -3.3149 H         1 UNK         0.0809 
     94 H94        25.7547   24.2811   -0.4781 H         1 UNK         0.2990 
     95 H95        23.1402   26.0939    1.0193 H         1 UNK         0.0690 
     96 H96        21.5187   24.4852    0.0363 H         1 UNK         0.0788 
     97 H97        22.6451   24.1137   -1.2701 H         1 UNK         0.0788 
     98 H98        21.9470   25.7216   -1.1340 H         1 UNK         0.0788 
     99 H99        23.8453   23.2658    0.7131 H         1 UNK         0.2993 
    100 H100       25.0155   23.0305    3.9292 H         1 UNK         0.0949 
    101 H101       24.8147   21.5371    1.2462 H         1 UNK         0.0767 
    102 H102       24.9895   20.8157    2.8375 H         1 UNK         0.0767 
    103 H103       23.5252   21.6909    2.4364 H         1 UNK         0.0767 
    104 H104       27.2148   23.0283    3.6080 H         1 UNK         0.3013 
    105 H105       31.1601   27.9572   -0.1464 H         1 UNK         0.3121 
    106 H106       31.1261   29.4539   -2.6176 H         1 UNK         0.0774 
    107 H107       33.5386   28.9190   -2.6516 H         1 UNK         0.0815 
    108 H108       33.4864   28.3776   -0.9835 H         1 UNK         0.0815 
    109 H109       32.6193   27.4833   -2.2342 H         1 UNK         0.0815 
    110 H110       31.4412   30.4283    0.6822 H         1 UNK         0.2987 
    111 H111       32.0437   33.1809   -0.0628 H         1 UNK         0.0949 
    112 H112       33.8494   33.3644    1.6638 H         1 UNK         0.0806 
    113 H113       33.7214   31.6486    2.0247 H         1 UNK         0.0806 
    114 H114       34.3259   32.1817    0.4576 H         1 UNK         0.0806 
    115 H115       31.6830   34.5597    1.9437 H         1 UNK         0.3010 
    116 H116       29.2423   33.7271    3.3268 H         1 UNK         0.0829 
    117 H117       29.4588   36.0085    2.3470 H         1 UNK         0.0813 
    118 H118       29.2112   36.0851    4.0815 H         1 UNK         0.0813 
    119 H119       30.8175   36.3535    3.4182 H         1 UNK         0.0813 
    120 H120       31.1522   31.9737    4.1247 H         1 UNK         0.3038 
    121 H121       31.2514   32.2015    6.9585 H         1 UNK         0.0769 
    122 H122       33.2736   33.6385    6.4808 H         1 UNK         0.0811 
    123 H123       33.9240   32.3886    5.4221 H         1 UNK         0.0811 
    124 H124       33.7778   32.0985    7.1503 H         1 UNK         0.0811 
    125 H125       32.1836   30.1397    7.8184 H         1 UNK         0.3204 
    126 H126       31.5356   27.8481    6.1278 H         1 UNK         0.0748 
    127 H127       31.9735   26.5699    8.2202 H         1 UNK         0.0771 
    128 H128       32.5122   28.0378    9.0257 H         1 UNK         0.0771 
    129 H129       30.8376   27.8799    8.4944 H         1 UNK         0.0771 
    130 H130       33.1851   28.4020    4.5110 H         1 UNK         0.2980 
    131 H131       35.9582   28.0915    5.0236 H         1 UNK         0.0545 
    132 H132       37.3763   26.4298    3.7061 H         1 UNK         0.3459 
    133 H133       36.9192   24.7734    4.0032 H         1 UNK         0.3459 
    134 H134       36.0056   27.7981    2.3735 H         1 UNK         0.0616 
    135 H135       35.6939   29.3140    3.1371 H         1 UNK         0.0616 
    136 H136       33.8816   26.1412    1.9229 H         1 UNK         0.0634 
    137 H137       32.6985   26.7677    0.8091 H         1 UNK         0.0634 
@<TRIPOS>BOND
     1    1    2 1    
     2    1   72 1    
     3    1   73 1    
     4    1   74 1    
     5    2    3 2    
     6    2    4 am   BACKBONE|DICT|INTERRES
     7    4    5 1    
     8    4   75 1    
     9    5    6 1    
    10    5   35 1    
    11    5   76 1    
    12    6    7 1    
    13    6   77 1    
    14    6   78 1    
    15    7    8 1    
    16    8    9 1    
    17    8   79 1    
    18    8   80 1    
    19    9   10 ar   
    20    9   14 ar   
    21   10   11 ar   
    22   10   81 1    
    23   11   12 ar   
    24   11   71 1    
    25   12   13 ar   
    26   12   82 1    
    27   13   14 ar   
    28   13   15 1    
    29   14   83 1    
    30   15   16 1    
    31   15   84 1    
    32   15   85 1    
    33   16   17 1    
    34   17   18 1    
    35   17   86 1    
    36   17   87 1    
    37   18   19 1    
    38   18   37 1    
    39   18   88 1    
    40   19   20 am   BACKBONE|DICT|INTERRES
    41   19   89 1    
    42   20   21 2    
    43   20   22 1    
    44   22   23 1    
    45   22   24 1    
    46   22   90 1    
    47   23   91 1    
    48   23   92 1    
    49   23   93 1    
    50   24   25 am   BACKBONE|DICT|INTERRES
    51   24   94 1    
    52   25   26 2    
    53   25   27 1    
    54   27   28 1    
    55   27   29 1    
    56   27   95 1    
    57   28   96 1    
    58   28   97 1    
    59   28   98 1    
    60   29   30 am   BACKBONE|DICT|INTERRES
    61   29   99 1    
    62   30   31 2    
    63   30   32 1    
    64   32   33 1    
    65   32   34 1    
    66   32  100 1    
    67   33  101 1    
    68   33  102 1    
    69   33  103 1    
    70   34   35 am   BACKBONE|DICT|INTERRES
    71   34  104 1    
    72   35   36 2    
    73   37   38 2    
    74   37   39 am   BACKBONE|DICT|INTERRES
    75   39   40 1    
    76   39  105 1    
    77   40   41 1    
    78   40   42 1    
    79   40  106 1    
    80   41  107 1    
    81   41  108 1    
    82   41  109 1    
    83   42   43 2    
    84   42   44 am   BACKBONE|DICT|INTERRES
    85   44   45 1    
    86   44  110 1    
    87   45   46 1    
    88   45   47 1    
    89   45  111 1    
    90   46  112 1    
    91   46  113 1    
    92   46  114 1    
    93   47   48 2    
    94   47   49 am   BACKBONE|DICT|INTERRES
    95   49   50 1    
    96   49  115 1    
    97   50   51 1    
    98   50   52 1    
    99   50  116 1    
   100   51  117 1    
   101   51  118 1    
   102   51  119 1    
   103   52   53 2    
   104   52   54 am   BACKBONE|DICT|INTERRES
   105   54   55 1    
   106   54  120 1    
   107   55   56 1    
   108   55   57 1    
   109   55  121 1    
   110   56  122 1    
   111   56  123 1    
   112   56  124 1    
   113   57   58 2    
   114   57   59 am   BACKBONE|DICT|INTERRES
   115   59   60 1    
   116   59  125 1    
   117   60   61 1    
   118   60   62 1    
   119   60  126 1    
   120   61  127 1    
   121   61  128 1    
   122   61  129 1    
   123   62   63 2    
   124   62   64 am   BACKBONE|DICT|INTERRES
   125   64   65 1    
   126   64  130 1    
   127   65   66 1    
   128   65   69 1    
   129   65  131 1    
   130   66   67 am   BACKBONE|DICT|INTERRES
   131   66   68 2    
   132   67  132 1    
   133   67  133 1    
   134   69   70 1    
   135   69  134 1    
   136   69  135 1    
   137   70   71 1    
   138   71  136 1    
   139   71  137 1    
@<TRIPOS>SUBSTRUCTURE
     1 UNK         1 GROUP             0       ****    0 ROOT    
