@<TRIPOS>MOLECULE
3R136
137   139    1
SMALL
USER_CHARGES


@<TRIPOS>ATOM
      1 CA         28.1074   22.7393   -3.1142 C.3       0 UNK        -0.1979 
      2 C          28.4283   22.3303   -1.6845 C.2       0 UNK         0.4864 
      3 O          27.8693   21.3482   -1.1933 O.2       0 UNK        -0.5359 
      4 N          29.3183   23.0813   -1.0193 N.am      1 UNK        -0.4318 
      5 CA         29.7691   22.9219    0.3709 C.3       1 UNK         0.0824 
      6 C6         30.5051   21.5813    0.6565 C.3       12 UNK        -0.0944 
      7 S7         32.1414   21.5345   -0.1543 S.3       12 UNK        -0.2672 
      8 C8         33.2611   21.9876    1.2164 C.3       12 UNK         0.0333 
      9 C9         32.8556   23.3071    1.8575 C.ar      12 UNK        -0.0807 
     10 C10        32.1673   23.3125    3.0745 C.ar      12 UNK        -0.0894 
     11 C11        31.6874   24.5079    3.6147 C.ar      12 UNK        -0.0804 
     12 C12        31.9246   25.7087    2.9410 C.ar      12 UNK        -0.0824 
     13 C13        32.6393   25.7203    1.7380 C.ar      12 UNK        -0.0762 
     14 C14        33.1104   24.5169    1.2050 C.ar      12 UNK        -0.0782 
     15 C15        32.9087   27.0338    1.0183 C.3       12 UNK         0.0230 
     16 S16        32.0207   27.1834   -0.5705 S.3       12 UNK        -0.2608 
     17 C17        30.2612   27.1097   -0.0904 C.3       12 UNK        -0.0989 
     18 CA         29.6463   28.5028    0.2163 C.3       5 UNK         0.0716 
     19 N          28.2178   28.5504   -0.1262 N.am      5 UNK        -0.4135 
     20 C          27.3600   29.5491    0.1402 C.2       4 UNK         0.5031 
     21 O          27.6951   30.6275    0.6309 O.2       4 UNK        -0.5229 
     22 CA         25.8636   29.2976   -0.1260 C.3       4 UNK         0.0329 
     23 CB         25.4233   30.0320   -1.4023 C.3       4 UNK        -0.2001 
     24 N          25.4585   27.8874   -0.2157 N.am      4 UNK        -0.4303 
     25 C          25.6646   26.9351    0.7066 C.2       3 UNK         0.5044 
     26 O          26.2908   27.1214    1.7546 O.2       3 UNK        -0.5152 
     27 CA         25.1147   25.5360    0.3822 C.3       3 UNK         0.0319 
     28 CB         25.2793   25.1567   -1.1081 C.3       3 UNK        -0.2001 
     29 N          25.8102   24.5638    1.2168 N.am      3 UNK        -0.4354 
     30 C          25.4218   23.3157    1.4914 C.2       2 UNK         0.4964 
     31 O          24.3506   22.8326    1.1196 O.2       2 UNK        -0.5047 
     32 CA         26.4393   22.4572    2.2680 C.3       2 UNK         0.0288 
     33 CB         25.8953   21.0621    2.6279 C.3       2 UNK        -0.2113 
     34 N          27.6663   22.2992    1.4835 N.am      2 UNK        -0.4145 
     35 C          28.6407   23.2113    1.3787 C.2       1 UNK         0.5006 
     36 O          28.6413   24.2748    2.0019 O.2       1 UNK        -0.5103 
     37 C          29.9129   28.8970    1.6833 C.2       5 UNK         0.5055 
     38 O          30.8057   29.7042    1.9406 O.2       5 UNK        -0.5220 
     39 N          29.0851   28.3725    2.6006 N.am      6 UNK        -0.4450 
     40 CA         29.1512   28.6256    4.0409 C.3       6 UNK         0.0367 
     41 CB         28.1245   27.7291    4.7503 C.3       6 UNK        -0.1929 
     42 C          28.9457   30.0977    4.4430 C.2       6 UNK         0.5070 
     43 O          29.4048   30.4876    5.5159 O.2       6 UNK        -0.5237 
     44 N          28.2760   30.8852    3.5917 N.am      7 UNK        -0.4739 
     45 CA         28.1090   32.3280    3.7585 C.3       7 UNK         0.0276 
     46 CB         26.6775   32.7245    3.3597 C.3       7 UNK        -0.1927 
     47 C          29.1379   33.1006    2.9202 C.2       7 UNK         0.5013 
     48 O          29.7302   34.0555    3.4230 O.2       7 UNK        -0.5193 
     49 N          29.3210   32.6866    1.6585 N.am      8 UNK        -0.4253 
     50 CA         30.1507   33.3686    0.6644 C.3       8 UNK         0.0242 
     51 CB         29.8282   32.8105   -0.7317 C.3       8 UNK        -0.2000 
     52 C          31.6612   33.2868    0.9356 C.2       8 UNK         0.4948 
     53 O          32.3569   34.2810    0.7227 O.2       8 UNK        -0.5275 
     54 N          32.1438   32.1152    1.3684 N.am      9 UNK        -0.4246 
     55 CA         33.5681   31.8174    1.5524 C.3       9 UNK         0.0261 
     56 CB         33.9959   30.8026    0.4765 C.3       9 UNK        -0.1959 
     57 C          33.8969   31.3073    2.9668 C.2       9 UNK         0.5033 
     58 O          35.0546   30.9635    3.2139 O.2       9 UNK        -0.5390 
     59 N          32.8966   31.2775    3.8615 N.am      10 UNK        -0.4215 
     60 CA         32.9217   30.7227    5.2225 C.3       10 UNK         0.0240 
     61 CB         33.9894   31.4172    6.0985 C.3       10 UNK        -0.1982 
     62 C          33.0507   29.1853    5.2310 C.2       10 UNK         0.4970 
     63 O          33.0434   28.5517    4.1761 O.2       10 UNK        -0.4916 
     64 N          33.1303   28.6022    6.4293 N.am      11 UNK        -0.4279 
     65 CA         33.2413   27.1585    6.6627 C.3       11 UNK         0.1003 
     66 C          34.0364   26.9002    7.9692 C.2       11 UNK         0.5709 
     67 N          34.7153   25.7668    8.0747 N.am      11 UNK        -0.7358 
     68 O          34.0337   27.7134    8.8932 O.2       11 UNK        -0.4999 
     69 C69        31.8416   26.4845    6.6675 C.3       12 UNK        -0.0954 
     70 S70        31.8975   24.6820    6.3807 S.3       12 UNK        -0.2268 
     71 C71        30.8654   24.4823    4.8943 C.3       12 UNK         0.0203 
     72 H72        27.0461   22.9683   -3.2082 H         1 UNK         0.0888 
     73 H73        28.6728   23.6174   -3.4258 H         1 UNK         0.0888 
     74 H74        28.3425   21.9244   -3.7983 H         1 UNK         0.0888 
     75 H75        29.7351   23.8648   -1.5016 H         1 UNK         0.3017 
     76 H76        30.4856   23.7291    0.5223 H         1 UNK         0.0873 
     77 H77        30.6376   21.4203    1.7271 H         1 UNK         0.0745 
     78 H78        29.9238   20.7273    0.3076 H         1 UNK         0.0745 
     79 H79        34.2806   22.0623    0.8353 H         1 UNK         0.0705 
     80 H80        33.2675   21.1845    1.9551 H         1 UNK         0.0705 
     81 H81        31.9667   22.3796    3.5834 H         1 UNK         0.1334 
     82 H82        31.5481   26.6342    3.3519 H         1 UNK         0.1417 
     83 H83        33.6412   24.5187    0.2623 H         1 UNK         0.1562 
     84 H84        33.9792   27.1163    0.8264 H         1 UNK         0.0748 
     85 H85        32.6589   27.8801    1.6562 H         1 UNK         0.0748 
     86 H86        30.1147   26.4014    0.7279 H         1 UNK         0.0940 
     87 H87        29.7497   26.6620   -0.9437 H         1 UNK         0.0940 
     88 H88        30.1286   29.2504   -0.4166 H         1 UNK         0.0703 
     89 H89        27.8303   27.7136   -0.5336 H         1 UNK         0.3081 
     90 H90        25.3221   29.7298    0.7180 H         1 UNK         0.0719 
     91 H91        25.9009   29.6184   -2.2914 H         1 UNK         0.0809 
     92 H92        24.3436   29.9756   -1.5420 H         1 UNK         0.0809 
     93 H93        25.6849   31.0904   -1.3549 H         1 UNK         0.0809 
     94 H94        24.9435   27.6306   -1.0456 H         1 UNK         0.2990 
     95 H95        24.0551   25.5309    0.6447 H         1 UNK         0.0690 
     96 H96        26.3199   25.2247   -1.4283 H         1 UNK         0.0788 
     97 H97        24.6872   25.8018   -1.7577 H         1 UNK         0.0788 
     98 H98        24.9444   24.1372   -1.2999 H         1 UNK         0.0788 
     99 H99        26.6895   24.8922    1.6075 H         1 UNK         0.2993 
    100 H100       26.6703   22.9799    3.1991 H         1 UNK         0.0949 
    101 H101       25.6536   20.4803    1.7373 H         1 UNK         0.0767 
    102 H102       26.6195   20.4942    3.2123 H         1 UNK         0.0767 
    103 H103       24.9863   21.1395    3.2260 H         1 UNK         0.0767 
    104 H104       27.6804   21.5405    0.8087 H         1 UNK         0.3013 
    105 H105       28.3284   27.7743    2.2863 H         1 UNK         0.3121 
    106 H106       30.1505   28.3412    4.3720 H         1 UNK         0.0774 
    107 H107       28.2108   27.8181    5.8340 H         1 UNK         0.0815 
    108 H108       27.1028   27.9991    4.4790 H         1 UNK         0.0815 
    109 H109       28.2654   26.6789    4.4967 H         1 UNK         0.0815 
    110 H110       27.9642   30.4932    2.7111 H         1 UNK         0.2987 
    111 H111       28.2539   32.6073    4.8047 H         1 UNK         0.0949 
    112 H112       26.4573   32.4726    2.3215 H         1 UNK         0.0806 
    113 H113       25.9405   32.2239    3.9877 H         1 UNK         0.0806 
    114 H114       26.5245   33.7985    3.4745 H         1 UNK         0.0806 
    115 H115       28.7687   31.9006    1.3196 H         1 UNK         0.3010 
    116 H116       29.8747   34.4253    0.6753 H         1 UNK         0.0829 
    117 H117       30.4083   33.3211   -1.5016 H         1 UNK         0.0813 
    118 H118       30.0550   31.7462   -0.8027 H         1 UNK         0.0813 
    119 H119       28.7745   32.9433   -0.9780 H         1 UNK         0.0813 
    120 H120       31.5078   31.3306    1.5133 H         1 UNK         0.3038 
    121 H121       34.1668   32.7204    1.4183 H         1 UNK         0.0769 
    122 H122       35.0515   30.5443    0.5692 H         1 UNK         0.0811 
    123 H123       33.8490   31.2047   -0.5259 H         1 UNK         0.0811 
    124 H124       33.4235   29.8786    0.5514 H         1 UNK         0.0811 
    125 H125       31.9835   31.5475    3.5263 H         1 UNK         0.3204 
    126 H126       31.9477   30.9543    5.6522 H         1 UNK         0.0748 
    127 H127       33.8472   31.1882    7.1550 H         1 UNK         0.0771 
    128 H128       35.0005   31.1061    5.8339 H         1 UNK         0.0771 
    129 H129       33.9374   32.5016    5.9999 H         1 UNK         0.0771 
    130 H130       33.1701   29.1653    7.2683 H         1 UNK         0.2980 
    131 H131       33.8303   26.7378    5.8446 H         1 UNK         0.0545 
    132 H132       35.2330   25.5800    8.9191 H         1 UNK         0.3459 
    133 H133       34.6929   25.0816    7.3354 H         1 UNK         0.3459 
    134 H134       31.3204   26.6751    7.6074 H         1 UNK         0.0616 
    135 H135       31.2173   26.9314    5.8949 H         1 UNK         0.0616 
    136 H136       30.3390   23.5296    4.9688 H         1 UNK         0.0634 
    137 H137       30.0862   25.2433    4.8621 H         1 UNK         0.0634 
@<TRIPOS>BOND
     1    1    2 1    
     2    1   72 1    
     3    1   73 1    
     4    1   74 1    
     5    2    3 2    
     6    2    4 am   BACKBONE|DICT|INTERRES
     7    4    5 1    
     8    4   75 1    
     9    5    6 1    
    10    5   35 1    
    11    5   76 1    
    12    6    7 1    
    13    6   77 1    
    14    6   78 1    
    15    7    8 1    
    16    8    9 1    
    17    8   79 1    
    18    8   80 1    
    19    9   10 ar   
    20    9   14 ar   
    21   10   11 ar   
    22   10   81 1    
    23   11   12 ar   
    24   11   71 1    
    25   12   13 ar   
    26   12   82 1    
    27   13   14 ar   
    28   13   15 1    
    29   14   83 1    
    30   15   16 1    
    31   15   84 1    
    32   15   85 1    
    33   16   17 1    
    34   17   18 1    
    35   17   86 1    
    36   17   87 1    
    37   18   19 1    
    38   18   37 1    
    39   18   88 1    
    40   19   20 am   BACKBONE|DICT|INTERRES
    41   19   89 1    
    42   20   21 2    
    43   20   22 1    
    44   22   23 1    
    45   22   24 1    
    46   22   90 1    
    47   23   91 1    
    48   23   92 1    
    49   23   93 1    
    50   24   25 am   BACKBONE|DICT|INTERRES
    51   24   94 1    
    52   25   26 2    
    53   25   27 1    
    54   27   28 1    
    55   27   29 1    
    56   27   95 1    
    57   28   96 1    
    58   28   97 1    
    59   28   98 1    
    60   29   30 am   BACKBONE|DICT|INTERRES
    61   29   99 1    
    62   30   31 2    
    63   30   32 1    
    64   32   33 1    
    65   32   34 1    
    66   32  100 1    
    67   33  101 1    
    68   33  102 1    
    69   33  103 1    
    70   34   35 am   BACKBONE|DICT|INTERRES
    71   34  104 1    
    72   35   36 2    
    73   37   38 2    
    74   37   39 am   BACKBONE|DICT|INTERRES
    75   39   40 1    
    76   39  105 1    
    77   40   41 1    
    78   40   42 1    
    79   40  106 1    
    80   41  107 1    
    81   41  108 1    
    82   41  109 1    
    83   42   43 2    
    84   42   44 am   BACKBONE|DICT|INTERRES
    85   44   45 1    
    86   44  110 1    
    87   45   46 1    
    88   45   47 1    
    89   45  111 1    
    90   46  112 1    
    91   46  113 1    
    92   46  114 1    
    93   47   48 2    
    94   47   49 am   BACKBONE|DICT|INTERRES
    95   49   50 1    
    96   49  115 1    
    97   50   51 1    
    98   50   52 1    
    99   50  116 1    
   100   51  117 1    
   101   51  118 1    
   102   51  119 1    
   103   52   53 2    
   104   52   54 am   BACKBONE|DICT|INTERRES
   105   54   55 1    
   106   54  120 1    
   107   55   56 1    
   108   55   57 1    
   109   55  121 1    
   110   56  122 1    
   111   56  123 1    
   112   56  124 1    
   113   57   58 2    
   114   57   59 am   BACKBONE|DICT|INTERRES
   115   59   60 1    
   116   59  125 1    
   117   60   61 1    
   118   60   62 1    
   119   60  126 1    
   120   61  127 1    
   121   61  128 1    
   122   61  129 1    
   123   62   63 2    
   124   62   64 am   BACKBONE|DICT|INTERRES
   125   64   65 1    
   126   64  130 1    
   127   65   66 1    
   128   65   69 1    
   129   65  131 1    
   130   66   67 am   BACKBONE|DICT|INTERRES
   131   66   68 2    
   132   67  132 1    
   133   67  133 1    
   134   69   70 1    
   135   69  134 1    
   136   69  135 1    
   137   70   71 1    
   138   71  136 1    
   139   71  137 1    
@<TRIPOS>SUBSTRUCTURE
     1 UNK         1 GROUP             0       ****    0 ROOT    
