@<TRIPOS>MOLECULE
3R136
137   139    1
SMALL
USER_CHARGES


@<TRIPOS>ATOM
      1 CA         32.7230   28.3822   -0.2018 C.3       0 UNK        -0.1979 
      2 C          31.4308   27.7225    0.2539 C.2       0 UNK         0.4864 
      3 O          30.4460   28.4210    0.5021 O.2       0 UNK        -0.5359 
      4 N          31.4367   26.3899    0.3784 N.am      1 UNK        -0.4318 
      5 CA         30.2785   25.5754    0.7442 C.3       1 UNK         0.0824 
      6 C6         30.7209   24.1973    1.3059 C.3       12 UNK        -0.0944 
      7 S7         29.3265   23.1723    1.8918 S.3       12 UNK        -0.2672 
      8 C8         29.6244   23.1201    3.6849 C.3       12 UNK         0.0333 
      9 C9         29.4184   24.4787    4.3371 C.ar      12 UNK        -0.0807 
     10 C10        30.5155   25.2428    4.7430 C.ar      12 UNK        -0.0894 
     11 C11        30.3266   26.4671    5.3897 C.ar      12 UNK        -0.0804 
     12 C12        29.0287   26.9397    5.6081 C.ar      12 UNK        -0.0824 
     13 C13        27.9222   26.1872    5.2011 C.ar      12 UNK        -0.0762 
     14 C14        28.1258   24.9545    4.5706 C.ar      12 UNK        -0.0782 
     15 C15        26.5116   26.6715    5.5137 C.3       12 UNK         0.0230 
     16 S16        25.3905   26.5933    4.0798 S.3       12 UNK        -0.2608 
     17 C17        25.8548   28.0798    3.1265 C.3       12 UNK        -0.0989 
     18 CA         26.5160   27.7666    1.7520 C.3       5 UNK         0.0716 
     19 N          25.7943   26.7839    0.9283 N.am      5 UNK        -0.4135 
     20 C          24.5293   26.8774    0.4896 C.2       4 UNK         0.5031 
     21 O          23.7427   27.7601    0.8358 O.2       4 UNK        -0.5229 
     22 CA         24.0516   25.8447   -0.5488 C.3       4 UNK         0.0329 
     23 CB         23.8461   26.5245   -1.9137 C.3       4 UNK        -0.2001 
     24 N          24.9552   24.7091   -0.7357 N.am      4 UNK        -0.4303 
     25 C          25.0928   23.6638    0.0869 C.2       3 UNK         0.5044 
     26 O          24.4731   23.5450    1.1436 O.2       3 UNK        -0.5152 
     27 CA         26.0898   22.5612   -0.3277 C.3       3 UNK         0.0319 
     28 CB         25.3868   21.4606   -1.1456 C.3       3 UNK        -0.2001 
     29 N          27.3051   23.0427   -1.0060 N.am      3 UNK        -0.4354 
     30 C          27.4355   23.6492   -2.1982 C.2       2 UNK         0.4964 
     31 O          26.4933   23.8519   -2.9654 O.2       2 UNK        -0.5047 
     32 CA         28.8447   24.1655   -2.5653 C.3       2 UNK         0.0288 
     33 CB         28.8040   25.3116   -3.5978 C.3       2 UNK        -0.2113 
     34 N          29.6447   24.5590   -1.3958 N.am      2 UNK        -0.4145 
     35 C          29.3181   25.4642   -0.4577 C.2       1 UNK         0.5006 
     36 O          28.3012   26.1601   -0.4946 O.2       1 UNK        -0.5103 
     37 C          26.7640   29.0353    0.9052 C.2       5 UNK         0.5055 
     38 O          26.3814   30.1366    1.3058 O.2       5 UNK        -0.5220 
     39 N          27.3288   28.8292   -0.2947 N.am      6 UNK        -0.4450 
     40 CA         27.4388   29.8104   -1.3781 C.3       6 UNK         0.0367 
     41 CB         28.0464   29.1320   -2.6154 C.3       6 UNK        -0.1929 
     42 C          28.2208   31.0826   -1.0174 C.2       6 UNK         0.5070 
     43 O          27.8232   32.1709   -1.4361 O.2       6 UNK        -0.5237 
     44 N          29.3005   30.9256   -0.2460 N.am      7 UNK        -0.4739 
     45 CA         30.0956   32.0272    0.2995 C.3       7 UNK         0.0276 
     46 CB         31.4155   32.1509   -0.4801 C.3       7 UNK        -0.1927 
     47 C          30.3650   31.8502    1.7993 C.2       7 UNK         0.5013 
     48 O          30.4978   32.8556    2.4973 O.2       7 UNK        -0.5193 
     49 N          30.4636   30.5925    2.2637 N.am      8 UNK        -0.4253 
     50 CA         30.7910   30.1725    3.6338 C.3       8 UNK         0.0242 
     51 CB         29.6586   30.5611    4.6091 C.3       8 UNK        -0.2000 
     52 C          32.1848   30.6423    4.1092 C.2       8 UNK         0.4948 
     53 O          32.4057   30.7927    5.3121 O.2       8 UNK        -0.5275 
     54 N          33.0988   30.8719    3.1558 N.am      9 UNK        -0.4246 
     55 CA         34.4651   31.3372    3.3851 C.3       9 UNK         0.0261 
     56 CB         35.0623   31.8069    2.0484 C.3       9 UNK        -0.1959 
     57 C          35.3401   30.2397    4.0078 C.2       9 UNK         0.5033 
     58 O          35.2247   29.0753    3.6137 O.2       9 UNK        -0.5390 
     59 N          36.2133   30.6444    4.9417 N.am      10 UNK        -0.4215 
     60 CA         37.1636   29.8404    5.7254 C.3       10 UNK         0.0240 
     61 CB         38.2153   29.1591    4.8257 C.3       10 UNK        -0.1982 
     62 C          36.4872   28.8352    6.6743 C.2       10 UNK         0.4970 
     63 O          36.6646   28.9397    7.8882 O.2       10 UNK        -0.4916 
     64 N          35.7198   27.9004    6.1033 N.am      11 UNK        -0.4279 
     65 CA         34.9167   26.8793    6.7908 C.3       11 UNK         0.1003 
     66 C          35.7307   25.8272    7.6075 C.2       11 UNK         0.5709 
     67 N          37.0177   25.6426    7.3366 N.am      11 UNK        -0.7358 
     68 O          35.1921   25.1466    8.4773 O.2       11 UNK        -0.4999 
     69 C69        33.7293   27.5167    7.5736 C.3       12 UNK        -0.0954 
     70 S70        32.1975   26.5455    7.4112 S.3       12 UNK        -0.2268 
     71 C71        31.5300   27.2568    5.8767 C.3       12 UNK         0.0203 
     72 H72        32.5513   28.9458   -1.1182 H         1 UNK         0.0888 
     73 H73        33.0873   29.0668    0.5628 H         1 UNK         0.0888 
     74 H74        33.5065   27.6507   -0.3986 H         1 UNK         0.0888 
     75 H75        32.2813   25.8817    0.1585 H         1 UNK         0.3017 
     76 H76        29.7397   26.0945    1.5409 H         1 UNK         0.0873 
     77 H77        31.2794   23.6239    0.5644 H         1 UNK         0.0745 
     78 H78        31.4200   24.3498    2.1289 H         1 UNK         0.0745 
     79 H79        28.9404   22.3977    4.1329 H         1 UNK         0.0705 
     80 H80        30.6304   22.7430    3.8759 H         1 UNK         0.0705 
     81 H81        31.5194   24.8735    4.5834 H         1 UNK         0.1334 
     82 H82        28.8807   27.8797    6.1215 H         1 UNK         0.1417 
     83 H83        27.2753   24.3575    4.2696 H         1 UNK         0.1562 
     84 H84        26.5192   27.6873    5.9119 H         1 UNK         0.0748 
     85 H85        26.1029   26.0395    6.3032 H         1 UNK         0.0748 
     86 H86        26.5239   28.7013    3.7239 H         1 UNK         0.0940 
     87 H87        24.9474   28.6712    2.9923 H         1 UNK         0.0940 
     88 H88        27.4967   27.3332    1.9550 H         1 UNK         0.0703 
     89 H89        26.3743   26.0576    0.5288 H         1 UNK         0.3081 
     90 H90        23.0879   25.4624   -0.2058 H         1 UNK         0.0719 
     91 H91        23.1416   27.3541   -1.8380 H         1 UNK         0.0809 
     92 H92        24.7813   26.9254   -2.3077 H         1 UNK         0.0809 
     93 H93        23.4439   25.8269   -2.6486 H         1 UNK         0.0809 
     94 H94        25.4822   24.6778   -1.6045 H         1 UNK         0.2990 
     95 H95        26.4401   22.1039    0.5993 H         1 UNK         0.0690 
     96 H96        26.0695   20.6441   -1.3805 H         1 UNK         0.0788 
     97 H97        24.9834   21.8420   -2.0841 H         1 UNK         0.0788 
     98 H98        24.5528   21.0348   -0.5861 H         1 UNK         0.0788 
     99 H99        28.1443   22.9637   -0.4469 H         1 UNK         0.2993 
    100 H100       29.3618   23.3224   -3.0259 H         1 UNK         0.0949 
    101 H101       28.2259   26.1590   -3.2315 H         1 UNK         0.0767 
    102 H102       29.8059   25.6672   -3.8383 H         1 UNK         0.0767 
    103 H103       28.3444   24.9839   -4.5311 H         1 UNK         0.0767 
    104 H104       30.5026   24.0407   -1.2688 H         1 UNK         0.3013 
    105 H105       27.6619   27.8886   -0.4996 H         1 UNK         0.3121 
    106 H106       26.4229   30.1219   -1.6294 H         1 UNK         0.0774 
    107 H107       29.0193   28.6899   -2.3958 H         1 UNK         0.0815 
    108 H108       27.3927   28.3444   -2.9890 H         1 UNK         0.0815 
    109 H109       28.1854   29.8463   -3.4282 H         1 UNK         0.0815 
    110 H110       29.5630   29.9792    0.0205 H         1 UNK         0.2987 
    111 H111       29.5497   32.9680    0.1967 H         1 UNK         0.0949 
    112 H112       31.2322   32.3535   -1.5354 H         1 UNK         0.0806 
    113 H113       32.0223   32.9712   -0.0938 H         1 UNK         0.0806 
    114 H114       32.0130   31.2427   -0.4131 H         1 UNK         0.0806 
    115 H115       30.3664   29.8256    1.6005 H         1 UNK         0.3010 
    116 H116       30.8390   29.0831    3.6046 H         1 UNK         0.0829 
    117 H117       29.5638   31.6426    4.7083 H         1 UNK         0.0813 
    118 H118       28.6981   30.1694    4.2746 H         1 UNK         0.0813 
    119 H119       29.8394   30.1640    5.6078 H         1 UNK         0.0813 
    120 H120       32.8368   30.6993    2.1985 H         1 UNK         0.3038 
    121 H121       34.4203   32.1901    4.0660 H         1 UNK         0.0769 
    122 H122       34.4685   32.6077    1.6068 H         1 UNK         0.0811 
    123 H123       35.1217   30.9932    1.3241 H         1 UNK         0.0811 
    124 H124       36.0731   32.1933    2.1863 H         1 UNK         0.0811 
    125 H125       36.1984   31.6251    5.1878 H         1 UNK         0.3204 
    126 H126       37.6974   30.5517    6.3580 H         1 UNK         0.0748 
    127 H127       37.7714   28.4358    4.1412 H         1 UNK         0.0771 
    128 H128       38.7558   29.8928    4.2277 H         1 UNK         0.0771 
    129 H129       38.9534   28.6257    5.4262 H         1 UNK         0.0771 
    130 H130       35.5988   27.9626    5.0954 H         1 UNK         0.2980 
    131 H131       34.4999   26.2996    5.9668 H         1 UNK         0.0545 
    132 H132       37.5386   24.9564    7.8596 H         1 UNK         0.3459 
    133 H133       37.4716   26.1845    6.6192 H         1 UNK         0.3459 
    134 H134       33.5175   28.5241    7.2099 H         1 UNK         0.0616 
    135 H135       33.9695   27.6364    8.6314 H         1 UNK         0.0616 
    136 H136       32.3014   27.2637    5.1049 H         1 UNK         0.0634 
    137 H137       31.2621   28.2970    6.0608 H         1 UNK         0.0634 
@<TRIPOS>BOND
     1    1    2 1    
     2    1   72 1    
     3    1   73 1    
     4    1   74 1    
     5    2    3 2    
     6    2    4 am   BACKBONE|DICT|INTERRES
     7    4    5 1    
     8    4   75 1    
     9    5    6 1    
    10    5   35 1    
    11    5   76 1    
    12    6    7 1    
    13    6   77 1    
    14    6   78 1    
    15    7    8 1    
    16    8    9 1    
    17    8   79 1    
    18    8   80 1    
    19    9   10 ar   
    20    9   14 ar   
    21   10   11 ar   
    22   10   81 1    
    23   11   12 ar   
    24   11   71 1    
    25   12   13 ar   
    26   12   82 1    
    27   13   14 ar   
    28   13   15 1    
    29   14   83 1    
    30   15   16 1    
    31   15   84 1    
    32   15   85 1    
    33   16   17 1    
    34   17   18 1    
    35   17   86 1    
    36   17   87 1    
    37   18   19 1    
    38   18   37 1    
    39   18   88 1    
    40   19   20 am   BACKBONE|DICT|INTERRES
    41   19   89 1    
    42   20   21 2    
    43   20   22 1    
    44   22   23 1    
    45   22   24 1    
    46   22   90 1    
    47   23   91 1    
    48   23   92 1    
    49   23   93 1    
    50   24   25 am   BACKBONE|DICT|INTERRES
    51   24   94 1    
    52   25   26 2    
    53   25   27 1    
    54   27   28 1    
    55   27   29 1    
    56   27   95 1    
    57   28   96 1    
    58   28   97 1    
    59   28   98 1    
    60   29   30 am   BACKBONE|DICT|INTERRES
    61   29   99 1    
    62   30   31 2    
    63   30   32 1    
    64   32   33 1    
    65   32   34 1    
    66   32  100 1    
    67   33  101 1    
    68   33  102 1    
    69   33  103 1    
    70   34   35 am   BACKBONE|DICT|INTERRES
    71   34  104 1    
    72   35   36 2    
    73   37   38 2    
    74   37   39 am   BACKBONE|DICT|INTERRES
    75   39   40 1    
    76   39  105 1    
    77   40   41 1    
    78   40   42 1    
    79   40  106 1    
    80   41  107 1    
    81   41  108 1    
    82   41  109 1    
    83   42   43 2    
    84   42   44 am   BACKBONE|DICT|INTERRES
    85   44   45 1    
    86   44  110 1    
    87   45   46 1    
    88   45   47 1    
    89   45  111 1    
    90   46  112 1    
    91   46  113 1    
    92   46  114 1    
    93   47   48 2    
    94   47   49 am   BACKBONE|DICT|INTERRES
    95   49   50 1    
    96   49  115 1    
    97   50   51 1    
    98   50   52 1    
    99   50  116 1    
   100   51  117 1    
   101   51  118 1    
   102   51  119 1    
   103   52   53 2    
   104   52   54 am   BACKBONE|DICT|INTERRES
   105   54   55 1    
   106   54  120 1    
   107   55   56 1    
   108   55   57 1    
   109   55  121 1    
   110   56  122 1    
   111   56  123 1    
   112   56  124 1    
   113   57   58 2    
   114   57   59 am   BACKBONE|DICT|INTERRES
   115   59   60 1    
   116   59  125 1    
   117   60   61 1    
   118   60   62 1    
   119   60  126 1    
   120   61  127 1    
   121   61  128 1    
   122   61  129 1    
   123   62   63 2    
   124   62   64 am   BACKBONE|DICT|INTERRES
   125   64   65 1    
   126   64  130 1    
   127   65   66 1    
   128   65   69 1    
   129   65  131 1    
   130   66   67 am   BACKBONE|DICT|INTERRES
   131   66   68 2    
   132   67  132 1    
   133   67  133 1    
   134   69   70 1    
   135   69  134 1    
   136   69  135 1    
   137   70   71 1    
   138   71  136 1    
   139   71  137 1    
@<TRIPOS>SUBSTRUCTURE
     1 UNK         1 GROUP             0       ****    0 ROOT    
