@<TRIPOS>MOLECULE
3R136
137   139    1
SMALL
USER_CHARGES


@<TRIPOS>ATOM
      1 CA         30.8785   29.3119   -4.8192 C.3       0 UNK        -0.1979 
      2 C          30.1407   29.1541   -3.4979 C.2       0 UNK         0.4864 
      3 O          29.6373   30.1409   -2.9587 O.2       0 UNK        -0.5359 
      4 N          30.0887   27.9250   -2.9683 N.am      1 UNK        -0.4318 
      5 CA         29.4007   27.5736   -1.7197 C.3       1 UNK         0.0824 
      6 C6         29.7984   26.1624   -1.2024 C.3       12 UNK        -0.0944 
      7 S7         31.6032   25.8945   -1.1379 S.3       12 UNK        -0.2672 
      8 C8         32.0377   26.6881    0.4467 C.3       12 UNK         0.0333 
      9 C9         32.0209   25.7983    1.6904 C.ar      12 UNK        -0.0807 
     10 C10        32.1982   26.4205    2.9304 C.ar      12 UNK        -0.0894 
     11 C11        32.2380   25.6749    4.1092 C.ar      12 UNK        -0.0804 
     12 C12        32.1120   24.2875    4.0468 C.ar      12 UNK        -0.0824 
     13 C13        31.9124   23.6457    2.8214 C.ar      12 UNK        -0.0762 
     14 C14        31.8727   24.4033    1.6451 C.ar      12 UNK        -0.0782 
     15 C15        31.7403   22.1316    2.7818 C.3       12 UNK         0.0230 
     16 S16        29.9946   21.6206    2.6191 S.3       12 UNK        -0.2608 
     17 C17        29.1773   22.5703    3.9478 C.3       12 UNK        -0.0989 
     18 CA         28.4072   23.7826    3.3515 C.3       5 UNK         0.0716 
     19 N          26.9940   23.4565    3.1295 N.am      5 UNK        -0.4135 
     20 C          26.1508   24.1747    2.3796 C.2       4 UNK         0.5031 
     21 O          26.4910   25.1768    1.7464 O.2       4 UNK        -0.5229 
     22 CA         24.6858   23.7104    2.3425 C.3       4 UNK         0.0329 
     23 CB         24.0061   23.9144    3.7081 C.3       4 UNK        -0.2001 
     24 N          23.9902   24.5195    1.3478 N.am      4 UNK        -0.4303 
     25 C          23.3294   24.0765    0.2742 C.2       3 UNK         0.5044 
     26 O          23.0374   22.8952    0.0825 O.2       3 UNK        -0.5152 
     27 CA         22.9394   25.1366   -0.7788 C.3       3 UNK         0.0319 
     28 CB         21.4464   25.4850   -0.6633 C.3       3 UNK        -0.2001 
     29 N          23.7297   26.3745   -0.6945 N.am      3 UNK        -0.4354 
     30 C          25.0456   26.4634   -0.9437 C.2       2 UNK         0.4964 
     31 O          25.7124   25.5141   -1.3628 O.2       2 UNK        -0.5047 
     32 CA         25.7048   27.8316   -0.6505 C.3       2 UNK         0.0288 
     33 CB         25.3244   28.3746    0.7422 C.3       2 UNK        -0.2113 
     34 N          27.1671   27.7932   -0.7391 N.am      2 UNK        -0.4145 
     35 C          27.8672   27.6843   -1.8742 C.2       1 UNK         0.5006 
     36 O          27.3497   27.6521   -2.9962 O.2       1 UNK        -0.5103 
     37 C          28.5462   25.0762    4.1866 C.2       5 UNK         0.5055 
     38 O          28.6250   25.0192    5.4155 O.2       5 UNK        -0.5220 
     39 N          28.5338   26.2131    3.4846 N.am      6 UNK        -0.4450 
     40 CA         28.5956   27.5850    3.9692 C.3       6 UNK         0.0367 
     41 CB         27.2759   27.9587    4.6737 C.3       6 UNK        -0.1929 
     42 C          28.8520   28.4953    2.7570 C.2       6 UNK         0.5070 
     43 O          28.7775   28.0279    1.6154 O.2       6 UNK        -0.5237 
     44 N          29.1255   29.7785    3.0341 N.am      7 UNK        -0.4739 
     45 CA         29.5244   30.8359    2.0899 C.3       7 UNK         0.0276 
     46 CB         28.4675   31.0379    0.9807 C.3       7 UNK        -0.1927 
     47 C          30.9442   30.6160    1.5302 C.2       7 UNK         0.5013 
     48 O          31.6512   29.7205    1.9979 O.2       7 UNK        -0.5193 
     49 N          31.3626   31.4717    0.5841 N.am      8 UNK        -0.4253 
     50 CA         32.6852   31.5151   -0.0593 C.3       8 UNK         0.0242 
     51 CB         32.8579   30.3373   -1.0430 C.3       8 UNK        -0.2000 
     52 C          33.8320   31.6283    0.9632 C.2       8 UNK         0.4948 
     53 O          34.1530   32.7384    1.3886 O.2       8 UNK        -0.5275 
     54 N          34.3973   30.4796    1.3608 N.am      9 UNK        -0.4246 
     55 CA         35.3753   30.3407    2.4418 C.3       9 UNK         0.0261 
     56 CB         35.9344   28.9082    2.4285 C.3       9 UNK        -0.1959 
     57 C          34.8049   30.6709    3.8344 C.2       9 UNK         0.5033 
     58 O          35.5810   31.0162    4.7265 O.2       9 UNK        -0.5390 
     59 N          33.4796   30.5388    4.0068 N.am      10 UNK        -0.4215 
     60 CA         32.6546   30.8383    5.1884 C.3       10 UNK         0.0240 
     61 CB         32.7333   32.3318    5.5577 C.3       10 UNK        -0.1982 
     62 C          32.9039   29.9494    6.4216 C.2       10 UNK         0.4970 
     63 O          31.9495   29.6663    7.1458 O.2       10 UNK        -0.4916 
     64 N          34.1512   29.5125    6.6261 N.am      11 UNK        -0.4279 
     65 CA         34.6147   28.6054    7.6900 C.3       11 UNK         0.1003 
     66 C          34.5853   29.2167    9.1246 C.2       11 UNK         0.5709 
     67 N          34.4682   30.5301    9.2819 N.am      11 UNK        -0.7358 
     68 O          34.7047   28.4971   10.1139 O.2       11 UNK        -0.4999 
     69 C69        33.9593   27.1940    7.6249 C.3       12 UNK        -0.0954 
     70 S70        34.1272   26.3930    5.9922 S.3       12 UNK        -0.2268 
     71 C71        32.3915   26.3655    5.4530 C.3       12 UNK         0.0203 
     72 H72        31.7006   30.0184   -4.7073 H         1 UNK         0.0888 
     73 H73        31.2899   28.3663   -5.1721 H         1 UNK         0.0888 
     74 H74        30.2016   29.6936   -5.5830 H         1 UNK         0.0888 
     75 H75        30.5170   27.1517   -3.4559 H         1 UNK         0.3017 
     76 H76        29.7048   28.3078   -0.9703 H         1 UNK         0.0873 
     77 H77        29.3760   25.3889   -1.8470 H         1 UNK         0.0745 
     78 H78        29.3839   25.9840   -0.2079 H         1 UNK         0.0745 
     79 H79        31.3720   27.5362    0.6053 H         1 UNK         0.0705 
     80 H80        33.0423   27.1003    0.3463 H         1 UNK         0.0705 
     81 H81        32.3094   27.4942    2.9805 H         1 UNK         0.1334 
     82 H82        32.1502   23.7099    4.9604 H         1 UNK         0.1417 
     83 H83        31.7307   23.8945    0.7025 H         1 UNK         0.1562 
     84 H84        32.1585   21.6769    3.6813 H         1 UNK         0.0748 
     85 H85        32.3078   21.7212    1.9453 H         1 UNK         0.0748 
     86 H86        28.5077   21.9046    4.4947 H         1 UNK         0.0940 
     87 H87        29.9244   22.8667    4.6835 H         1 UNK         0.0940 
     88 H88        28.8407   24.0166    2.3756 H         1 UNK         0.0703 
     89 H89        26.6367   22.6578    3.6320 H         1 UNK         0.3081 
     90 H90        24.6630   22.6535    2.0686 H         1 UNK         0.0719 
     91 H91        22.9515   23.6410    3.6674 H         1 UNK         0.0809 
     92 H92        24.4680   23.2966    4.4789 H         1 UNK         0.0809 
     93 H93        24.0686   24.9521    4.0392 H         1 UNK         0.0809 
     94 H94        24.2655   25.4920    1.3478 H         1 UNK         0.2990 
     95 H95        23.1129   24.6948   -1.7623 H         1 UNK         0.0690 
     96 H96        21.1359   26.1713   -1.4514 H         1 UNK         0.0788 
     97 H97        21.2121   25.9456    0.2974 H         1 UNK         0.0788 
     98 H98        20.8289   24.5902   -0.7543 H         1 UNK         0.0788 
     99 H99        23.2423   27.1970   -0.3687 H         1 UNK         0.2993 
    100 H100       25.3399   28.5320   -1.4048 H         1 UNK         0.0949 
    101 H101       25.6274   27.6917    1.5364 H         1 UNK         0.0767 
    102 H102       25.8063   29.3330    0.9342 H         1 UNK         0.0767 
    103 H103       24.2512   28.5399    0.8382 H         1 UNK         0.0767 
    104 H104       27.6751   27.7901    0.1442 H         1 UNK         0.3013 
    105 H105       28.4177   26.1621    2.4768 H         1 UNK         0.3121 
    106 H106       29.4345   27.6769    4.6616 H         1 UNK         0.0774 
    107 H107       27.2930   28.9884    5.0320 H         1 UNK         0.0815 
    108 H108       26.4230   27.8602    4.0009 H         1 UNK         0.0815 
    109 H109       27.0908   27.3242    5.5403 H         1 UNK         0.0815 
    110 H110       29.1588   30.0461    4.0074 H         1 UNK         0.2987 
    111 H111       29.5690   31.7546    2.6769 H         1 UNK         0.0949 
    112 H112       28.4854   30.2336    0.2454 H         1 UNK         0.0806 
    113 H113       27.4623   31.0888    1.3982 H         1 UNK         0.0806 
    114 H114       28.6311   31.9698    0.4393 H         1 UNK         0.0806 
    115 H115       30.7240   32.1987    0.2937 H         1 UNK         0.3010 
    116 H116       32.7149   32.4337   -0.6478 H         1 UNK         0.0829 
    117 H117       32.1722   30.4398   -1.8817 H         1 UNK         0.0813 
    118 H118       33.8654   30.3124   -1.4608 H         1 UNK         0.0813 
    119 H119       32.6646   29.3709   -0.5797 H         1 UNK         0.0813 
    120 H120       34.0250   29.6235    0.9766 H         1 UNK         0.3038 
    121 H121       36.1941   31.0366    2.2476 H         1 UNK         0.0769 
    122 H122       36.6920   28.7779    3.2027 H         1 UNK         0.0811 
    123 H123       36.4061   28.6737    1.4741 H         1 UNK         0.0811 
    124 H124       35.1543   28.1671    2.6104 H         1 UNK         0.0811 
    125 H125       32.9467   30.1964    3.2077 H         1 UNK         0.3204 
    126 H126       31.6295   30.6356    4.8748 H         1 UNK         0.0748 
    127 H127       33.7319   32.6186    5.8888 H         1 UNK         0.0771 
    128 H128       32.4686   32.9627    4.7089 H         1 UNK         0.0771 
    129 H129       32.0422   32.5704    6.3674 H         1 UNK         0.0771 
    130 H130       34.8691   29.8718    6.0023 H         1 UNK         0.2980 
    131 H131       35.6766   28.4650    7.4861 H         1 UNK         0.0545 
    132 H132       34.4619   30.9175   10.2123 H         1 UNK         0.3459 
    133 H133       34.3853   31.1343    8.4805 H         1 UNK         0.3459 
    134 H134       34.4273   26.5278    8.3515 H         1 UNK         0.0616 
    135 H135       32.9066   27.2474    7.9068 H         1 UNK         0.0616 
    136 H136       32.0092   27.3846    5.3946 H         1 UNK         0.0634 
    137 H137       31.7852   25.8520    6.2011 H         1 UNK         0.0634 
@<TRIPOS>BOND
     1    1    2 1    
     2    1   72 1    
     3    1   73 1    
     4    1   74 1    
     5    2    3 2    
     6    2    4 am   BACKBONE|DICT|INTERRES
     7    4    5 1    
     8    4   75 1    
     9    5    6 1    
    10    5   35 1    
    11    5   76 1    
    12    6    7 1    
    13    6   77 1    
    14    6   78 1    
    15    7    8 1    
    16    8    9 1    
    17    8   79 1    
    18    8   80 1    
    19    9   10 ar   
    20    9   14 ar   
    21   10   11 ar   
    22   10   81 1    
    23   11   12 ar   
    24   11   71 1    
    25   12   13 ar   
    26   12   82 1    
    27   13   14 ar   
    28   13   15 1    
    29   14   83 1    
    30   15   16 1    
    31   15   84 1    
    32   15   85 1    
    33   16   17 1    
    34   17   18 1    
    35   17   86 1    
    36   17   87 1    
    37   18   19 1    
    38   18   37 1    
    39   18   88 1    
    40   19   20 am   BACKBONE|DICT|INTERRES
    41   19   89 1    
    42   20   21 2    
    43   20   22 1    
    44   22   23 1    
    45   22   24 1    
    46   22   90 1    
    47   23   91 1    
    48   23   92 1    
    49   23   93 1    
    50   24   25 am   BACKBONE|DICT|INTERRES
    51   24   94 1    
    52   25   26 2    
    53   25   27 1    
    54   27   28 1    
    55   27   29 1    
    56   27   95 1    
    57   28   96 1    
    58   28   97 1    
    59   28   98 1    
    60   29   30 am   BACKBONE|DICT|INTERRES
    61   29   99 1    
    62   30   31 2    
    63   30   32 1    
    64   32   33 1    
    65   32   34 1    
    66   32  100 1    
    67   33  101 1    
    68   33  102 1    
    69   33  103 1    
    70   34   35 am   BACKBONE|DICT|INTERRES
    71   34  104 1    
    72   35   36 2    
    73   37   38 2    
    74   37   39 am   BACKBONE|DICT|INTERRES
    75   39   40 1    
    76   39  105 1    
    77   40   41 1    
    78   40   42 1    
    79   40  106 1    
    80   41  107 1    
    81   41  108 1    
    82   41  109 1    
    83   42   43 2    
    84   42   44 am   BACKBONE|DICT|INTERRES
    85   44   45 1    
    86   44  110 1    
    87   45   46 1    
    88   45   47 1    
    89   45  111 1    
    90   46  112 1    
    91   46  113 1    
    92   46  114 1    
    93   47   48 2    
    94   47   49 am   BACKBONE|DICT|INTERRES
    95   49   50 1    
    96   49  115 1    
    97   50   51 1    
    98   50   52 1    
    99   50  116 1    
   100   51  117 1    
   101   51  118 1    
   102   51  119 1    
   103   52   53 2    
   104   52   54 am   BACKBONE|DICT|INTERRES
   105   54   55 1    
   106   54  120 1    
   107   55   56 1    
   108   55   57 1    
   109   55  121 1    
   110   56  122 1    
   111   56  123 1    
   112   56  124 1    
   113   57   58 2    
   114   57   59 am   BACKBONE|DICT|INTERRES
   115   59   60 1    
   116   59  125 1    
   117   60   61 1    
   118   60   62 1    
   119   60  126 1    
   120   61  127 1    
   121   61  128 1    
   122   61  129 1    
   123   62   63 2    
   124   62   64 am   BACKBONE|DICT|INTERRES
   125   64   65 1    
   126   64  130 1    
   127   65   66 1    
   128   65   69 1    
   129   65  131 1    
   130   66   67 am   BACKBONE|DICT|INTERRES
   131   66   68 2    
   132   67  132 1    
   133   67  133 1    
   134   69   70 1    
   135   69  134 1    
   136   69  135 1    
   137   70   71 1    
   138   71  136 1    
   139   71  137 1    
@<TRIPOS>SUBSTRUCTURE
     1 UNK         1 GROUP             0       ****    0 ROOT    
