@<TRIPOS>MOLECULE
3R136
137   139    1
SMALL
USER_CHARGES


@<TRIPOS>ATOM
      1 CA         27.1182   21.6253    6.6070 C.3       0 UNK        -0.1979 
      2 C          27.5607   22.3363    5.3362 C.2       0 UNK         0.4864 
      3 O          27.9354   23.5071    5.3980 O.2       0 UNK        -0.5359 
      4 N          27.5205   21.6290    4.1972 N.am      1 UNK        -0.4318 
      5 CA         27.8660   22.1014    2.8514 C.3       1 UNK         0.0824 
      6 C6         29.3648   22.4888    2.7027 C.3       12 UNK        -0.0944 
      7 S7         29.9085   22.3891    0.9638 S.3       12 UNK        -0.2672 
      8 C8         31.7260   22.4225    1.1185 C.3       12 UNK         0.0333 
      9 C9         32.3325   23.7829    0.7875 C.ar      12 UNK        -0.0807 
     10 C10        33.2624   24.3726    1.6515 C.ar      12 UNK        -0.0894 
     11 C11        33.8925   25.5731    1.3057 C.ar      12 UNK        -0.0804 
     12 C12        33.5584   26.2061    0.1028 C.ar      12 UNK        -0.0824 
     13 C13        32.6334   25.6269   -0.7719 C.ar      12 UNK        -0.0762 
     14 C14        32.0292   24.4150   -0.4239 C.ar      12 UNK        -0.0782 
     15 C15        32.3543   26.2498   -2.1345 C.3       12 UNK         0.0230 
     16 S16        30.6271   26.8049   -2.3169 S.3       12 UNK        -0.2608 
     17 C17        30.7614   28.6291   -2.2479 C.3       12 UNK        -0.0989 
     18 CA         29.9278   29.2881   -1.1215 C.3       5 UNK         0.0716 
     19 N          28.5139   28.8956   -1.1591 N.am      5 UNK        -0.4135 
     20 C          27.5461   29.3820   -0.3712 C.2       4 UNK         0.5031 
     21 O          27.7330   30.2709    0.4606 O.2       4 UNK        -0.5229 
     22 CA         26.1471   28.7469   -0.4756 C.3       4 UNK         0.0329 
     23 CB         25.2981   29.4472   -1.5540 C.3       4 UNK        -0.2001 
     24 N          26.1466   27.2827   -0.6375 N.am      4 UNK        -0.4303 
     25 C          26.5480   26.5463   -1.6861 C.2       3 UNK         0.5044 
     26 O          26.9957   27.0342   -2.7240 O.2       3 UNK        -0.5152 
     27 CA         26.4859   25.0136   -1.5480 C.3       3 UNK         0.0319 
     28 CB         27.8736   24.3905   -1.7833 C.3       3 UNK        -0.2001 
     29 N          26.0168   24.5874   -0.2283 N.am      3 UNK        -0.4354 
     30 C          24.8063   24.1032    0.0702 C.2       2 UNK         0.4964 
     31 O          23.8999   23.9825   -0.7556 O.2       2 UNK        -0.5047 
     32 CA         24.5831   23.6741    1.5406 C.3       2 UNK         0.0288 
     33 CB         23.2269   22.9751    1.7549 C.3       2 UNK        -0.2113 
     34 N          25.6498   22.8053    2.0599 N.am      2 UNK        -0.4145 
     35 C          26.8914   23.2018    2.3766 C.2       1 UNK         0.5006 
     36 O          27.2593   24.3751    2.2868 O.2       1 UNK        -0.5103 
     37 C          30.5683   29.0715    0.2627 C.2       5 UNK         0.5055 
     38 O          31.3169   29.9333    0.7222 O.2       5 UNK        -0.5220 
     39 N          30.2128   27.9581    0.9184 N.am      6 UNK        -0.4450 
     40 CA         30.6363   27.6117    2.2732 C.3       6 UNK         0.0367 
     41 CB         30.1189   26.2116    2.6223 C.3       6 UNK        -0.1929 
     42 C          30.1621   28.6244    3.3248 C.2       6 UNK         0.5070 
     43 O          30.9290   28.9684    4.2215 O.2       6 UNK        -0.5237 
     44 N          28.9176   29.1017    3.1862 N.am      7 UNK        -0.4739 
     45 CA         28.3325   30.1250    4.0523 C.3       7 UNK         0.0276 
     46 CB         26.8062   30.1527    3.8715 C.3       7 UNK        -0.1927 
     47 C          28.9459   31.5086    3.7932 C.2       7 UNK         0.5013 
     48 O          29.2506   32.2187    4.7511 O.2       7 UNK        -0.5193 
     49 N          29.1450   31.8490    2.5112 N.am      8 UNK        -0.4253 
     50 CA         29.7634   33.1001    2.0650 C.3       8 UNK         0.0242 
     51 CB         29.6379   33.2215    0.5378 C.3       8 UNK        -0.2000 
     52 C          31.2306   33.2400    2.5068 C.2       8 UNK         0.4948 
     53 O          31.6180   34.3072    2.9840 O.2       8 UNK        -0.5275 
     54 N          32.0124   32.1619    2.3583 N.am      9 UNK        -0.4246 
     55 CA         33.4180   32.0934    2.7680 C.3       9 UNK         0.0261 
     56 CB         34.1264   31.0194    1.9276 C.3       9 UNK        -0.1959 
     57 C          33.6147   31.8253    4.2731 C.2       9 UNK         0.5033 
     58 O          34.7397   31.9720    4.7537 O.2       9 UNK        -0.5390 
     59 N          32.5418   31.4386    4.9810 N.am      10 UNK        -0.4215 
     60 CA         32.4922   31.0487    6.3964 C.3       10 UNK         0.0240 
     61 CB         32.8083   32.2479    7.3159 C.3       10 UNK        -0.1982 
     62 C          33.3557   29.8053    6.6904 C.2       10 UNK         0.4970 
     63 O          34.1552   29.8063    7.6292 O.2       10 UNK        -0.4916 
     64 N          33.1803   28.7723    5.8603 N.am      11 UNK        -0.4279 
     65 CA         33.8516   27.4699    5.9556 C.3       11 UNK         0.1003 
     66 C          33.3749   26.6455    7.1820 C.2       11 UNK         0.5709 
     67 N          34.2357   25.7963    7.7270 N.am      11 UNK        -0.7358 
     68 O          32.2296   26.7381    7.6211 O.2       11 UNK        -0.4999 
     69 C69        33.6868   26.6592    4.6431 C.3       12 UNK        -0.0954 
     70 S70        34.4377   27.5204    3.2222 S.3       12 UNK        -0.2268 
     71 C71        35.0017   26.1424    2.1816 C.3       12 UNK         0.0203 
     72 H72        26.8192   20.5946    6.4169 H         1 UNK         0.0888 
     73 H73        27.9315   21.6134    7.3322 H         1 UNK         0.0888 
     74 H74        26.2717   22.1468    7.0529 H         1 UNK         0.0888 
     75 H75        27.1951   20.6728    4.2393 H         1 UNK         0.3017 
     76 H76        27.6924   21.2397    2.2042 H         1 UNK         0.0873 
     77 H77        29.5742   23.4792    3.1080 H         1 UNK         0.0745 
     78 H78        29.9766   21.7941    3.2801 H         1 UNK         0.0745 
     79 H79        32.1409   21.6888    0.4262 H         1 UNK         0.0705 
     80 H80        32.0204   22.0953    2.1166 H         1 UNK         0.0705 
     81 H81        33.5292   23.8764    2.5745 H         1 UNK         0.1334 
     82 H82        34.0532   27.1286   -0.1692 H         1 UNK         0.1417 
     83 H83        31.3330   23.9517   -1.1101 H         1 UNK         0.1562 
     84 H84        32.5504   25.4991   -2.9014 H         1 UNK         0.0748 
     85 H85        33.0473   27.0659   -2.3413 H         1 UNK         0.0748 
     86 H86        31.8059   28.9370   -2.1744 H         1 UNK         0.0940 
     87 H87        30.4205   29.0122   -3.2111 H         1 UNK         0.0940 
     88 H88        29.9464   30.3651   -1.2992 H         1 UNK         0.0703 
     89 H89        28.2566   28.1778   -1.8316 H         1 UNK         0.3081 
     90 H90        25.6594   28.9292    0.4835 H         1 UNK         0.0719 
     91 H91        25.7313   29.3459   -2.5494 H         1 UNK         0.0809 
     92 H92        24.2861   29.0437   -1.5857 H         1 UNK         0.0809 
     93 H93        25.2147   30.5151   -1.3472 H         1 UNK         0.0809 
     94 H94        25.8168   26.7683    0.1669 H         1 UNK         0.2990 
     95 H95        25.8100   24.6479   -2.3236 H         1 UNK         0.0690 
     96 H96        28.6009   24.7337   -1.0460 H         1 UNK         0.0788 
     97 H97        28.2617   24.6483   -2.7697 H         1 UNK         0.0788 
     98 H98        27.8339   23.3025   -1.7277 H         1 UNK         0.0788 
     99 H99        26.6879   24.6432    0.5355 H         1 UNK         0.2993 
    100 H100       24.5755   24.5915    2.1336 H         1 UNK         0.0949 
    101 H101       23.1552   22.0495    1.1822 H         1 UNK         0.0767 
    102 H102       23.0663   22.7337    2.8059 H         1 UNK         0.0767 
    103 H103       22.4009   23.6166    1.4445 H         1 UNK         0.0767 
    104 H104       25.4224   21.8248    2.1425 H         1 UNK         0.3013 
    105 H105       29.6197   27.2962    0.4409 H         1 UNK         0.3121 
    106 H106       31.7260   27.5950    2.2797 H         1 UNK         0.0774 
    107 H107       30.5023   25.8780    3.5866 H         1 UNK         0.0815 
    108 H108       29.0313   26.1925    2.6850 H         1 UNK         0.0815 
    109 H109       30.4222   25.4769    1.8786 H         1 UNK         0.0815 
    110 H110       28.3694   28.8043    2.3925 H         1 UNK         0.2987 
    111 H111       28.5458   29.8565    5.0897 H         1 UNK         0.0949 
    112 H112       26.5191   30.4175    2.8536 H         1 UNK         0.0806 
    113 H113       26.3618   29.1850    4.1047 H         1 UNK         0.0806 
    114 H114       26.3505   30.8864    4.5379 H         1 UNK         0.0806 
    115 H115       28.8198   31.2128    1.7878 H         1 UNK         0.3010 
    116 H116       29.2031   33.9212    2.5173 H         1 UNK         0.0829 
    117 H117       30.0456   34.1706    0.1874 H         1 UNK         0.0813 
    118 H118       30.1769   32.4255    0.0239 H         1 UNK         0.0813 
    119 H119       28.5958   33.1780    0.2203 H         1 UNK         0.0813 
    120 H120       31.6352   31.3357    1.8951 H         1 UNK         0.3038 
    121 H121       33.8921   33.0530    2.5509 H         1 UNK         0.0769 
    122 H122       34.0948   31.2628    0.8656 H         1 UNK         0.0811 
    123 H123       33.6595   30.0436    2.0573 H         1 UNK         0.0811 
    124 H124       35.1758   30.9215    2.2090 H         1 UNK         0.0811 
    125 H125       31.6750   31.3170    4.4741 H         1 UNK         0.3204 
    126 H126       31.4598   30.7526    6.5898 H         1 UNK         0.0748 
    127 H127       32.6557   31.9859    8.3635 H         1 UNK         0.0771 
    128 H128       33.8416   32.5803    7.2120 H         1 UNK         0.0771 
    129 H129       32.1593   33.0956    7.0960 H         1 UNK         0.0771 
    130 H130       32.4487   28.8428    5.1550 H         1 UNK         0.2980 
    131 H131       34.9158   27.6707    6.0955 H         1 UNK         0.0545 
    132 H132       33.9426   25.2417    8.5160 H         1 UNK         0.3459 
    133 H133       35.1743   25.7034    7.3709 H         1 UNK         0.3459 
    134 H134       34.1523   25.6773    4.7433 H         1 UNK         0.0616 
    135 H135       32.6332   26.4803    4.4278 H         1 UNK         0.0616 
    136 H136       35.8065   26.5071    1.5419 H         1 UNK         0.0634 
    137 H137       35.4472   25.3640    2.8026 H         1 UNK         0.0634 
@<TRIPOS>BOND
     1    1    2 1    
     2    1   72 1    
     3    1   73 1    
     4    1   74 1    
     5    2    3 2    
     6    2    4 am   BACKBONE|DICT|INTERRES
     7    4    5 1    
     8    4   75 1    
     9    5    6 1    
    10    5   35 1    
    11    5   76 1    
    12    6    7 1    
    13    6   77 1    
    14    6   78 1    
    15    7    8 1    
    16    8    9 1    
    17    8   79 1    
    18    8   80 1    
    19    9   10 ar   
    20    9   14 ar   
    21   10   11 ar   
    22   10   81 1    
    23   11   12 ar   
    24   11   71 1    
    25   12   13 ar   
    26   12   82 1    
    27   13   14 ar   
    28   13   15 1    
    29   14   83 1    
    30   15   16 1    
    31   15   84 1    
    32   15   85 1    
    33   16   17 1    
    34   17   18 1    
    35   17   86 1    
    36   17   87 1    
    37   18   19 1    
    38   18   37 1    
    39   18   88 1    
    40   19   20 am   BACKBONE|DICT|INTERRES
    41   19   89 1    
    42   20   21 2    
    43   20   22 1    
    44   22   23 1    
    45   22   24 1    
    46   22   90 1    
    47   23   91 1    
    48   23   92 1    
    49   23   93 1    
    50   24   25 am   BACKBONE|DICT|INTERRES
    51   24   94 1    
    52   25   26 2    
    53   25   27 1    
    54   27   28 1    
    55   27   29 1    
    56   27   95 1    
    57   28   96 1    
    58   28   97 1    
    59   28   98 1    
    60   29   30 am   BACKBONE|DICT|INTERRES
    61   29   99 1    
    62   30   31 2    
    63   30   32 1    
    64   32   33 1    
    65   32   34 1    
    66   32  100 1    
    67   33  101 1    
    68   33  102 1    
    69   33  103 1    
    70   34   35 am   BACKBONE|DICT|INTERRES
    71   34  104 1    
    72   35   36 2    
    73   37   38 2    
    74   37   39 am   BACKBONE|DICT|INTERRES
    75   39   40 1    
    76   39  105 1    
    77   40   41 1    
    78   40   42 1    
    79   40  106 1    
    80   41  107 1    
    81   41  108 1    
    82   41  109 1    
    83   42   43 2    
    84   42   44 am   BACKBONE|DICT|INTERRES
    85   44   45 1    
    86   44  110 1    
    87   45   46 1    
    88   45   47 1    
    89   45  111 1    
    90   46  112 1    
    91   46  113 1    
    92   46  114 1    
    93   47   48 2    
    94   47   49 am   BACKBONE|DICT|INTERRES
    95   49   50 1    
    96   49  115 1    
    97   50   51 1    
    98   50   52 1    
    99   50  116 1    
   100   51  117 1    
   101   51  118 1    
   102   51  119 1    
   103   52   53 2    
   104   52   54 am   BACKBONE|DICT|INTERRES
   105   54   55 1    
   106   54  120 1    
   107   55   56 1    
   108   55   57 1    
   109   55  121 1    
   110   56  122 1    
   111   56  123 1    
   112   56  124 1    
   113   57   58 2    
   114   57   59 am   BACKBONE|DICT|INTERRES
   115   59   60 1    
   116   59  125 1    
   117   60   61 1    
   118   60   62 1    
   119   60  126 1    
   120   61  127 1    
   121   61  128 1    
   122   61  129 1    
   123   62   63 2    
   124   62   64 am   BACKBONE|DICT|INTERRES
   125   64   65 1    
   126   64  130 1    
   127   65   66 1    
   128   65   69 1    
   129   65  131 1    
   130   66   67 am   BACKBONE|DICT|INTERRES
   131   66   68 2    
   132   67  132 1    
   133   67  133 1    
   134   69   70 1    
   135   69  134 1    
   136   69  135 1    
   137   70   71 1    
   138   71  136 1    
   139   71  137 1    
@<TRIPOS>SUBSTRUCTURE
     1 UNK         1 GROUP             0       ****    0 ROOT    
