@<TRIPOS>MOLECULE
3R136
137   139    1
SMALL
USER_CHARGES


@<TRIPOS>ATOM
      1 CA         29.4815   27.1382   -2.4744 C.3       0 UNK        -0.1979 
      2 C          28.9022   26.2193   -1.4109 C.2       0 UNK         0.4864 
      3 O          27.7787   26.4434   -0.9596 O.2       0 UNK        -0.5359 
      4 N          29.6541   25.1862   -1.0066 N.am      1 UNK        -0.4318 
      5 CA         29.2810   24.2036    0.0218 C.3       1 UNK         0.0824 
      6 C6         30.3952   23.1551    0.2695 C.3       12 UNK        -0.0944 
      7 S7         32.0325   23.8959    0.5846 S.3       12 UNK        -0.2672 
      8 C8         32.2893   23.5166    2.3447 C.3       12 UNK         0.0333 
      9 C9         31.5427   24.4882    3.2447 C.ar      12 UNK        -0.0807 
     10 C10        32.0574   25.7703    3.4530 C.ar      12 UNK        -0.0894 
     11 C11        31.4107   26.6656    4.3084 C.ar      12 UNK        -0.0804 
     12 C12        30.2369   26.2714    4.9554 C.ar      12 UNK        -0.0824 
     13 C13        29.7082   24.9926    4.7518 C.ar      12 UNK        -0.0762 
     14 C14        30.3641   24.1045    3.8925 C.ar      12 UNK        -0.0782 
     15 C15        28.4513   24.5573    5.4923 C.3       12 UNK         0.0230 
     16 S16        26.9820   24.5297    4.4180 S.3       12 UNK        -0.2608 
     17 C17        26.7441   26.3000    4.0350 C.3       12 UNK        -0.0989 
     18 CA         26.7671   26.5624    2.5042 C.3       5 UNK         0.0716 
     19 N          25.7105   25.8386    1.7846 N.am      5 UNK        -0.4135 
     20 C          24.3890   26.0444    1.8984 C.2       4 UNK         0.5031 
     21 O          23.8824   26.9104    2.6150 O.2       4 UNK        -0.5229 
     22 CA         23.4824   25.1072    1.0767 C.3       4 UNK         0.0329 
     23 CB         21.9909   25.5035    1.1281 C.3       4 UNK        -0.2001 
     24 N          23.9321   24.9573   -0.3104 N.am      4 UNK        -0.4303 
     25 C          24.0793   25.9167   -1.2369 C.2       3 UNK         0.5044 
     26 O          23.7984   27.1005   -1.0480 O.2       3 UNK        -0.5152 
     27 CA         24.6425   25.4705   -2.6028 C.3       3 UNK         0.0319 
     28 CB         25.1972   26.6456   -3.4294 C.3       3 UNK        -0.2001 
     29 N          25.6942   24.4611   -2.4526 N.am      3 UNK        -0.4354 
     30 C          25.4928   23.1404   -2.3423 C.2       2 UNK         0.4964 
     31 O          24.3786   22.6201   -2.3927 O.2       2 UNK        -0.5047 
     32 CA         26.7207   22.2477   -2.0919 C.3       2 UNK         0.0288 
     33 CB         27.1394   21.5364   -3.3890 C.3       2 UNK        -0.2113 
     34 N          27.8771   22.9609   -1.5437 N.am      2 UNK        -0.4145 
     35 C          27.9536   23.4935   -0.3142 C.2       1 UNK         0.5006 
     36 O          27.0311   23.4855    0.5036 O.2       1 UNK        -0.5103 
     37 C          26.7747   28.0650    2.1444 C.2       5 UNK         0.5055 
     38 O          26.7312   28.9207    3.0305 O.2       5 UNK        -0.5220 
     39 N          26.8338   28.3549    0.8380 N.am      6 UNK        -0.4450 
     40 CA         26.9266   29.7065    0.2777 C.3       6 UNK         0.0367 
     41 CB         26.3366   29.6960   -1.1420 C.3       6 UNK        -0.1929 
     42 C          28.3694   30.2465    0.2501 C.2       6 UNK         0.5070 
     43 O          28.5642   31.4206   -0.0678 O.2       6 UNK        -0.5237 
     44 N          29.3535   29.3870    0.5492 N.am      7 UNK        -0.4739 
     45 CA         30.7784   29.7135    0.6264 C.3       7 UNK         0.0276 
     46 CB         31.5717   28.4059    0.7850 C.3       7 UNK        -0.1927 
     47 C          31.1022   30.7023    1.7641 C.2       7 UNK         0.5013 
     48 O          30.3792   30.7577    2.7623 O.2       7 UNK        -0.5193 
     49 N          32.1900   31.4626    1.5832 N.am      8 UNK        -0.4253 
     50 CA         32.6685   32.4858    2.5164 C.3       8 UNK         0.0242 
     51 CB         33.7847   33.2950    1.8340 C.3       8 UNK        -0.2000 
     52 C          33.1775   31.8970    3.8425 C.2       8 UNK         0.4948 
     53 O          33.6601   30.7637    3.8685 O.2       8 UNK        -0.5275 
     54 N          33.1319   32.7178    4.9025 N.am      9 UNK        -0.4246 
     55 CA         33.5025   32.3916    6.2890 C.3       9 UNK         0.0261 
     56 CB         33.1813   33.6001    7.1846 C.3       9 UNK        -0.1959 
     57 C          34.9555   31.9238    6.5171 C.2       9 UNK         0.5033 
     58 O          35.2658   31.4477    7.6108 O.2       9 UNK        -0.5390 
     59 N          35.8088   32.0158    5.4872 N.am      10 UNK        -0.4215 
     60 CA         37.1611   31.4517    5.4254 C.3       10 UNK         0.0240 
     61 CB         37.7972   31.8324    4.0783 C.3       10 UNK        -0.1982 
     62 C          37.2232   29.9241    5.6396 C.2       10 UNK         0.4970 
     63 O          38.2959   29.4160    5.9688 O.2       10 UNK        -0.4916 
     64 N          36.0878   29.2266    5.4843 N.am      11 UNK        -0.4279 
     65 CA         35.8937   27.8325    5.9098 C.3       11 UNK         0.1003 
     66 C          36.0465   27.5787    7.4417 C.2       11 UNK         0.5709 
     67 N          35.9585   28.5894    8.3009 N.am      11 UNK        -0.7358 
     68 O          36.2616   26.4412    7.8539 O.2       11 UNK        -0.4999 
     69 C69        34.5617   27.2518    5.3652 C.3       12 UNK        -0.0954 
     70 S70        33.0703   28.1088    5.9895 S.3       12 UNK        -0.2268 
     71 C71        31.9791   28.0577    4.5355 C.3       12 UNK         0.0203 
     72 H72        30.4847   26.8351   -2.7729 H         1 UNK         0.0888 
     73 H73        29.5331   28.1601   -2.1006 H         1 UNK         0.0888 
     74 H74        28.8459   27.1320   -3.3592 H         1 UNK         0.0888 
     75 H75        30.5796   25.0652   -1.3939 H         1 UNK         0.3017 
     76 H76        29.1322   24.7549    0.9516 H         1 UNK         0.0873 
     77 H77        30.1222   22.5060    1.1037 H         1 UNK         0.0745 
     78 H78        30.5073   22.4972   -0.5945 H         1 UNK         0.0745 
     79 H79        32.0021   22.4848    2.5529 H         1 UNK         0.0705 
     80 H80        33.3569   23.5794    2.5606 H         1 UNK         0.0705 
     81 H81        32.9672   26.0679    2.9502 H         1 UNK         0.1334 
     82 H82        29.7429   26.9602    5.6271 H         1 UNK         0.1417 
     83 H83        29.9614   23.1122    3.7406 H         1 UNK         0.1562 
     84 H84        28.2591   25.2066    6.3481 H         1 UNK         0.0748 
     85 H85        28.6040   23.5576    5.9014 H         1 UNK         0.0748 
     86 H86        27.5170   26.8852    4.5339 H         1 UNK         0.0940 
     87 H87        25.8000   26.6279    4.4728 H         1 UNK         0.0940 
     88 H88        27.7119   26.1718    2.1260 H         1 UNK         0.0703 
     89 H89        26.0330   25.0818    1.1891 H         1 UNK         0.3081 
     90 H90        23.5752   24.1215    1.5353 H         1 UNK         0.0719 
     91 H91        21.8227   26.5028    0.7252 H         1 UNK         0.0809 
     92 H92        21.3747   24.8052    0.5619 H         1 UNK         0.0809 
     93 H93        21.6216   25.5014    2.1544 H         1 UNK         0.0809 
     94 H94        24.1813   24.0169   -0.5885 H         1 UNK         0.2990 
     95 H95        23.8089   25.0404   -3.1618 H         1 UNK         0.0690 
     96 H96        25.5573   26.3108   -4.4022 H         1 UNK         0.0788 
     97 H97        26.0228   27.1402   -2.9189 H         1 UNK         0.0788 
     98 H98        24.4282   27.3973   -3.6123 H         1 UNK         0.0788 
     99 H99        26.6295   24.8183   -2.3147 H         1 UNK         0.2993 
    100 H100       26.4221   21.4889   -1.3650 H         1 UNK         0.0949 
    101 H101       26.3083   20.9673   -3.8086 H         1 UNK         0.0767 
    102 H102       27.4664   22.2451   -4.1512 H         1 UNK         0.0767 
    103 H103       27.9530   20.8327   -3.2116 H         1 UNK         0.0767 
    104 H104       28.6798   23.0481   -2.1503 H         1 UNK         0.3013 
    105 H105       26.9228   27.5887    0.1703 H         1 UNK         0.3121 
    106 H106       26.3320   30.3873    0.8905 H         1 UNK         0.0774 
    107 H107       26.9148   29.0589   -1.8114 H         1 UNK         0.0815 
    108 H108       26.3306   30.6986   -1.5713 H         1 UNK         0.0815 
    109 H109       25.3069   29.3393   -1.1422 H         1 UNK         0.0815 
    110 H110       29.0872   28.4535    0.8207 H         1 UNK         0.2987 
    111 H111       31.0624   30.1821   -0.3185 H         1 UNK         0.0949 
    112 H112       31.2185   27.8274    1.6377 H         1 UNK         0.0806 
    113 H113       31.4824   27.7767   -0.1005 H         1 UNK         0.0806 
    114 H114       32.6347   28.5988    0.9366 H         1 UNK         0.0806 
    115 H115       32.7491   31.3186    0.7553 H         1 UNK         0.3010 
    116 H116       31.8316   33.1531    2.7338 H         1 UNK         0.0829 
    117 H117       33.4330   33.7580    0.9117 H         1 UNK         0.0813 
    118 H118       34.1411   34.0995    2.4789 H         1 UNK         0.0813 
    119 H119       34.6444   32.6695    1.5889 H         1 UNK         0.0813 
    120 H120       32.7541   33.6442    4.7623 H         1 UNK         0.3038 
    121 H121       32.8644   31.5610    6.5983 H         1 UNK         0.0769 
    122 H122       33.7679   34.4760    6.9047 H         1 UNK         0.0811 
    123 H123       33.4003   33.3832    8.2313 H         1 UNK         0.0811 
    124 H124       32.1261   33.8683    7.1291 H         1 UNK         0.0811 
    125 H125       35.4446   32.3953    4.6260 H         1 UNK         0.3204 
    126 H126       37.7435   31.9118    6.2260 H         1 UNK         0.0748 
    127 H127       38.8184   31.4550    4.0071 H         1 UNK         0.0771 
    128 H128       37.2375   31.4194    3.2378 H         1 UNK         0.0771 
    129 H129       37.8452   32.9143    3.9524 H         1 UNK         0.0771 
    130 H130       35.2530   29.7127    5.1804 H         1 UNK         0.2980 
    131 H131       36.6976   27.2614    5.4418 H         1 UNK         0.0545 
    132 H132       36.0644   28.4075    9.2857 H         1 UNK         0.3459 
    133 H133       35.7574   29.5310    7.9808 H         1 UNK         0.3459 
    134 H134       34.5743   27.3078    4.2762 H         1 UNK         0.0616 
    135 H135       34.4754   26.1907    5.6059 H         1 UNK         0.0616 
    136 H136       31.1667   28.7713    4.6803 H         1 UNK         0.0634 
    137 H137       32.5250   28.3967    3.6549 H         1 UNK         0.0634 
@<TRIPOS>BOND
     1    1    2 1    
     2    1   72 1    
     3    1   73 1    
     4    1   74 1    
     5    2    3 2    
     6    2    4 am   BACKBONE|DICT|INTERRES
     7    4    5 1    
     8    4   75 1    
     9    5    6 1    
    10    5   35 1    
    11    5   76 1    
    12    6    7 1    
    13    6   77 1    
    14    6   78 1    
    15    7    8 1    
    16    8    9 1    
    17    8   79 1    
    18    8   80 1    
    19    9   10 ar   
    20    9   14 ar   
    21   10   11 ar   
    22   10   81 1    
    23   11   12 ar   
    24   11   71 1    
    25   12   13 ar   
    26   12   82 1    
    27   13   14 ar   
    28   13   15 1    
    29   14   83 1    
    30   15   16 1    
    31   15   84 1    
    32   15   85 1    
    33   16   17 1    
    34   17   18 1    
    35   17   86 1    
    36   17   87 1    
    37   18   19 1    
    38   18   37 1    
    39   18   88 1    
    40   19   20 am   BACKBONE|DICT|INTERRES
    41   19   89 1    
    42   20   21 2    
    43   20   22 1    
    44   22   23 1    
    45   22   24 1    
    46   22   90 1    
    47   23   91 1    
    48   23   92 1    
    49   23   93 1    
    50   24   25 am   BACKBONE|DICT|INTERRES
    51   24   94 1    
    52   25   26 2    
    53   25   27 1    
    54   27   28 1    
    55   27   29 1    
    56   27   95 1    
    57   28   96 1    
    58   28   97 1    
    59   28   98 1    
    60   29   30 am   BACKBONE|DICT|INTERRES
    61   29   99 1    
    62   30   31 2    
    63   30   32 1    
    64   32   33 1    
    65   32   34 1    
    66   32  100 1    
    67   33  101 1    
    68   33  102 1    
    69   33  103 1    
    70   34   35 am   BACKBONE|DICT|INTERRES
    71   34  104 1    
    72   35   36 2    
    73   37   38 2    
    74   37   39 am   BACKBONE|DICT|INTERRES
    75   39   40 1    
    76   39  105 1    
    77   40   41 1    
    78   40   42 1    
    79   40  106 1    
    80   41  107 1    
    81   41  108 1    
    82   41  109 1    
    83   42   43 2    
    84   42   44 am   BACKBONE|DICT|INTERRES
    85   44   45 1    
    86   44  110 1    
    87   45   46 1    
    88   45   47 1    
    89   45  111 1    
    90   46  112 1    
    91   46  113 1    
    92   46  114 1    
    93   47   48 2    
    94   47   49 am   BACKBONE|DICT|INTERRES
    95   49   50 1    
    96   49  115 1    
    97   50   51 1    
    98   50   52 1    
    99   50  116 1    
   100   51  117 1    
   101   51  118 1    
   102   51  119 1    
   103   52   53 2    
   104   52   54 am   BACKBONE|DICT|INTERRES
   105   54   55 1    
   106   54  120 1    
   107   55   56 1    
   108   55   57 1    
   109   55  121 1    
   110   56  122 1    
   111   56  123 1    
   112   56  124 1    
   113   57   58 2    
   114   57   59 am   BACKBONE|DICT|INTERRES
   115   59   60 1    
   116   59  125 1    
   117   60   61 1    
   118   60   62 1    
   119   60  126 1    
   120   61  127 1    
   121   61  128 1    
   122   61  129 1    
   123   62   63 2    
   124   62   64 am   BACKBONE|DICT|INTERRES
   125   64   65 1    
   126   64  130 1    
   127   65   66 1    
   128   65   69 1    
   129   65  131 1    
   130   66   67 am   BACKBONE|DICT|INTERRES
   131   66   68 2    
   132   67  132 1    
   133   67  133 1    
   134   69   70 1    
   135   69  134 1    
   136   69  135 1    
   137   70   71 1    
   138   71  136 1    
   139   71  137 1    
@<TRIPOS>SUBSTRUCTURE
     1 UNK         1 GROUP             0       ****    0 ROOT    
