@<TRIPOS>MOLECULE
3R136
137   139    1
SMALL
USER_CHARGES


@<TRIPOS>ATOM
      1 CA         24.5761   25.7769    4.0448 C.3       0 UNK        -0.1979 
      2 C          25.2195   24.3999    4.1088 C.2       0 UNK         0.4864 
      3 O          25.0792   23.7042    5.1157 O.2       0 UNK        -0.5359 
      4 N          25.9148   24.0048    3.0389 N.am      1 UNK        -0.4318 
      5 CA         26.5854   22.7070    2.8996 C.3       1 UNK         0.0824 
      6 C6         27.8954   22.5560    3.7223 C.3       12 UNK        -0.0944 
      7 S7         29.0053   23.9967    3.6206 S.3       12 UNK        -0.2672 
      8 C8         30.4080   23.3751    2.6515 C.3       12 UNK         0.0333 
      9 C9         31.3172   24.5319    2.2662 C.ar      12 UNK        -0.0807 
     10 C10        32.1235   25.1458    3.2303 C.ar      12 UNK        -0.0894 
     11 C11        32.9098   26.2530    2.8970 C.ar      12 UNK        -0.0804 
     12 C12        32.8991   26.7316    1.5835 C.ar      12 UNK        -0.0824 
     13 C13        32.1176   26.1127    0.6044 C.ar      12 UNK        -0.0762 
     14 C14        31.3278   25.0125    0.9538 C.ar      12 UNK        -0.0782 
     15 C15        32.1598   26.6183   -0.8324 C.3       12 UNK         0.0230 
     16 S16        30.5094   26.9128   -1.5432 S.3       12 UNK        -0.2608 
     17 C17        29.9312   28.3692   -0.6028 C.3       12 UNK        -0.0989 
     18 CA         28.4152   28.3564   -0.2452 C.3       5 UNK         0.0716 
     19 N          27.5528   27.9497   -1.3564 N.am      5 UNK        -0.4135 
     20 C          27.3080   28.7151   -2.4278 C.2       4 UNK         0.5031 
     21 O          27.6991   29.8801   -2.5242 O.2       4 UNK        -0.5229 
     22 CA         26.5287   28.1122   -3.6102 C.3       4 UNK         0.0329 
     23 CB         27.4221   28.0663   -4.8632 C.3       4 UNK        -0.2001 
     24 N          26.0239   26.7598   -3.3601 N.am      4 UNK        -0.4303 
     25 C          24.7292   26.4350   -3.2386 C.2       3 UNK         0.5044 
     26 O          23.8105   27.2554   -3.2298 O.2       3 UNK        -0.5152 
     27 CA         24.3928   24.9348   -3.1327 C.3       3 UNK         0.0319 
     28 CB         24.0308   24.3691   -4.5158 C.3       3 UNK        -0.2001 
     29 N          25.4757   24.1338   -2.5528 N.am      3 UNK        -0.4354 
     30 C          25.8267   24.1851   -1.2625 C.2       2 UNK         0.4964 
     31 O          25.2421   24.8822   -0.4286 O.2       2 UNK        -0.5047 
     32 CA         27.0385   23.3343   -0.8499 C.3       2 UNK         0.0288 
     33 CB         28.3349   23.8813   -1.4668 C.3       2 UNK        -0.2113 
     34 N          27.1614   23.3650    0.6056 N.am      2 UNK        -0.4145 
     35 C          26.7641   22.3716    1.4119 C.2       1 UNK         0.5006 
     36 O          26.4797   21.2397    1.0152 O.2       1 UNK        -0.5103 
     37 C          28.0916   27.5356    1.0139 C.2       5 UNK         0.5055 
     38 O          27.5878   26.4122    0.9195 O.2       5 UNK        -0.5220 
     39 N          28.3694   28.1455    2.1705 N.am      6 UNK        -0.4450 
     40 CA         28.1272   27.6139    3.5065 C.3       6 UNK         0.0367 
     41 CB         27.0443   28.4677    4.1887 C.3       6 UNK        -0.1929 
     42 C          29.4298   27.6692    4.3132 C.2       6 UNK         0.5070 
     43 O          30.3411   28.4258    3.9640 O.2       6 UNK        -0.5237 
     44 N          29.4741   26.8984    5.4065 N.am      7 UNK        -0.4739 
     45 CA         30.6049   26.7712    6.3287 C.3       7 UNK         0.0276 
     46 CB         30.4376   25.4745    7.1420 C.3       7 UNK        -0.1927 
     47 C          30.7942   28.0157    7.2181 C.2       7 UNK         0.5013 
     48 O          30.6484   27.9364    8.4396 O.2       7 UNK        -0.5193 
     49 N          31.0998   29.1461    6.5778 N.am      8 UNK        -0.4253 
     50 CA         31.3296   30.4487    7.1898 C.3       8 UNK         0.0242 
     51 CB         29.9830   31.1859    7.3662 C.3       8 UNK        -0.2000 
     52 C          32.3757   31.2048    6.3554 C.2       8 UNK         0.4948 
     53 O          33.4201   30.6310    6.0362 O.2       8 UNK        -0.5275 
     54 N          32.0821   32.4670    6.0071 N.am      9 UNK        -0.4246 
     55 CA         32.9654   33.4245    5.3272 C.3       9 UNK         0.0261 
     56 CB         32.2090   34.7470    5.1209 C.3       9 UNK        -0.1959 
     57 C          33.5782   32.9490    3.9971 C.2       9 UNK         0.5033 
     58 O          34.6527   33.4296    3.6342 O.2       9 UNK        -0.5390 
     59 N          32.9306   31.9894    3.3204 N.am      10 UNK        -0.4215 
     60 CA         33.4358   31.3162    2.1185 C.3       10 UNK         0.0240 
     61 CB         32.3527   30.3694    1.5774 C.3       10 UNK        -0.1982 
     62 C          34.7637   30.5576    2.3283 C.2       10 UNK         0.4970 
     63 O          35.4888   30.3570    1.3534 O.2       10 UNK        -0.4916 
     64 N          35.0637   30.1755    3.5768 N.am      11 UNK        -0.4279 
     65 CA         36.3418   29.5878    4.0072 C.3       11 UNK         0.1003 
     66 C          37.1905   30.5731    4.8650 C.2       11 UNK         0.5709 
     67 N          36.8692   31.8611    4.9276 N.am      11 UNK        -0.7358 
     68 O          38.1821   30.1720    5.4702 O.2       11 UNK        -0.4999 
     69 C69        36.1262   28.2205    4.7123 C.3       12 UNK        -0.0954 
     70 S70        35.5107   26.9509    3.5580 S.3       12 UNK        -0.2268 
     71 C71        33.7383   26.9631    3.9576 C.3       12 UNK         0.0203 
     72 H72        23.4907   25.6847    4.0687 H         1 UNK         0.0888 
     73 H73        24.8856   26.3761    4.9003 H         1 UNK         0.0888 
     74 H74        24.8518   26.3119    3.1357 H         1 UNK         0.0888 
     75 H75        25.9514   24.6040    2.2240 H         1 UNK         0.3017 
     76 H76        25.8888   21.9542    3.2761 H         1 UNK         0.0873 
     77 H77        27.6381   22.4313    4.7750 H         1 UNK         0.0745 
     78 H78        28.4328   21.6463    3.4475 H         1 UNK         0.0745 
     79 H79        30.9630   22.6410    3.2372 H         1 UNK         0.0705 
     80 H80        30.0387   22.8603    1.7631 H         1 UNK         0.0705 
     81 H81        32.1095   24.7772    4.2466 H         1 UNK         0.1334 
     82 H82        33.5132   27.5837    1.3261 H         1 UNK         0.1417 
     83 H83        30.7113   24.5396    0.2031 H         1 UNK         0.1562 
     84 H84        32.6741   25.8763   -1.4445 H         1 UNK         0.0748 
     85 H85        32.7436   27.5371   -0.9089 H         1 UNK         0.0748 
     86 H86        30.1462   29.2478   -1.2129 H         1 UNK         0.0940 
     87 H87        30.5378   28.4897    0.2960 H         1 UNK         0.0940 
     88 H88        28.1348   29.3825    0.0048 H         1 UNK         0.0703 
     89 H89        27.1563   27.0238   -1.2729 H         1 UNK         0.3081 
     90 H90        25.7007   28.7935   -3.8162 H         1 UNK         0.0719 
     91 H91        28.2952   27.4297   -4.7133 H         1 UNK         0.0809 
     92 H92        26.8747   27.6888   -5.7271 H         1 UNK         0.0809 
     93 H93        27.7860   29.0612   -5.1242 H         1 UNK         0.0809 
     94 H94        26.7051   26.0147   -3.3614 H         1 UNK         0.2990 
     95 H95        23.5154   24.8410   -2.4887 H         1 UNK         0.0690 
     96 H96        23.7140   23.3281   -4.4488 H         1 UNK         0.0788 
     97 H97        24.8721   24.4217   -5.2081 H         1 UNK         0.0788 
     98 H98        23.2068   24.9280   -4.9621 H         1 UNK         0.0788 
     99 H99        25.9858   23.5293   -3.1816 H         1 UNK         0.2993 
    100 H100       26.8791   22.3153   -1.2092 H         1 UNK         0.0949 
    101 H101       29.1935   23.2779   -1.1725 H         1 UNK         0.0767 
    102 H102       28.2985   23.8745   -2.5565 H         1 UNK         0.0767 
    103 H103       28.5205   24.9060   -1.1493 H         1 UNK         0.0767 
    104 H104       27.3728   24.2784    0.9946 H         1 UNK         0.3013 
    105 H105       28.8796   29.0181    2.1579 H         1 UNK         0.3121 
    106 H106       27.7870   26.5793    3.4504 H         1 UNK         0.0774 
    107 H107       26.8035   28.0815    5.1797 H         1 UNK         0.0815 
    108 H108       27.3658   29.5028    4.3128 H         1 UNK         0.0815 
    109 H109       26.1212   28.4745    3.6095 H         1 UNK         0.0815 
    110 H110       28.6696   26.3262    5.6186 H         1 UNK         0.2987 
    111 H111       31.5114   26.6702    5.7348 H         1 UNK         0.0949 
    112 H112       29.5314   25.4917    7.7486 H         1 UNK         0.0806 
    113 H113       30.3889   24.6016    6.4904 H         1 UNK         0.0806 
    114 H114       31.2808   25.3251    7.8176 H         1 UNK         0.0806 
    115 H115       31.1606   29.1052    5.5630 H         1 UNK         0.3010 
    116 H116       31.7764   30.3047    8.1758 H         1 UNK         0.0829 
    117 H117       29.2958   30.6000    7.9770 H         1 UNK         0.0813 
    118 H118       30.1120   32.1422    7.8747 H         1 UNK         0.0813 
    119 H119       29.4911   31.3708    6.4102 H         1 UNK         0.0813 
    120 H120       31.1884   32.8309    6.3054 H         1 UNK         0.3038 
    121 H121       33.8010   33.6145    6.0040 H         1 UNK         0.0769 
    122 H122       31.3309   34.6151    4.4875 H         1 UNK         0.0811 
    123 H123       32.8465   35.4922    4.6424 H         1 UNK         0.0811 
    124 H124       31.8799   35.1704    6.0701 H         1 UNK         0.0811 
    125 H125       32.0589   31.6498    3.6993 H         1 UNK         0.3204 
    126 H126       33.6216   32.0869    1.3676 H         1 UNK         0.0748 
    127 H127       32.6816   29.8888    0.6550 H         1 UNK         0.0771 
    128 H128       32.1150   29.5800    2.2914 H         1 UNK         0.0771 
    129 H129       31.4316   30.9058    1.3495 H         1 UNK         0.0771 
    130 H130       34.4191   30.3931    4.3313 H         1 UNK         0.2980 
    131 H131       36.9654   29.3998    3.1318 H         1 UNK         0.0545 
    132 H132       36.0895   32.2385    4.4017 H         1 UNK         0.3459 
    133 H133       37.4411   32.4777    5.4820 H         1 UNK         0.3459 
    134 H134       35.4462   28.3232    5.5601 H         1 UNK         0.0616 
    135 H135       37.0645   27.8400    5.1193 H         1 UNK         0.0616 
    136 H136       33.6138   26.4948    4.9339 H         1 UNK         0.0634 
    137 H137       33.3806   27.9893    4.0513 H         1 UNK         0.0634 
@<TRIPOS>BOND
     1    1    2 1    
     2    1   72 1    
     3    1   73 1    
     4    1   74 1    
     5    2    3 2    
     6    2    4 am   BACKBONE|DICT|INTERRES
     7    4    5 1    
     8    4   75 1    
     9    5    6 1    
    10    5   35 1    
    11    5   76 1    
    12    6    7 1    
    13    6   77 1    
    14    6   78 1    
    15    7    8 1    
    16    8    9 1    
    17    8   79 1    
    18    8   80 1    
    19    9   10 ar   
    20    9   14 ar   
    21   10   11 ar   
    22   10   81 1    
    23   11   12 ar   
    24   11   71 1    
    25   12   13 ar   
    26   12   82 1    
    27   13   14 ar   
    28   13   15 1    
    29   14   83 1    
    30   15   16 1    
    31   15   84 1    
    32   15   85 1    
    33   16   17 1    
    34   17   18 1    
    35   17   86 1    
    36   17   87 1    
    37   18   19 1    
    38   18   37 1    
    39   18   88 1    
    40   19   20 am   BACKBONE|DICT|INTERRES
    41   19   89 1    
    42   20   21 2    
    43   20   22 1    
    44   22   23 1    
    45   22   24 1    
    46   22   90 1    
    47   23   91 1    
    48   23   92 1    
    49   23   93 1    
    50   24   25 am   BACKBONE|DICT|INTERRES
    51   24   94 1    
    52   25   26 2    
    53   25   27 1    
    54   27   28 1    
    55   27   29 1    
    56   27   95 1    
    57   28   96 1    
    58   28   97 1    
    59   28   98 1    
    60   29   30 am   BACKBONE|DICT|INTERRES
    61   29   99 1    
    62   30   31 2    
    63   30   32 1    
    64   32   33 1    
    65   32   34 1    
    66   32  100 1    
    67   33  101 1    
    68   33  102 1    
    69   33  103 1    
    70   34   35 am   BACKBONE|DICT|INTERRES
    71   34  104 1    
    72   35   36 2    
    73   37   38 2    
    74   37   39 am   BACKBONE|DICT|INTERRES
    75   39   40 1    
    76   39  105 1    
    77   40   41 1    
    78   40   42 1    
    79   40  106 1    
    80   41  107 1    
    81   41  108 1    
    82   41  109 1    
    83   42   43 2    
    84   42   44 am   BACKBONE|DICT|INTERRES
    85   44   45 1    
    86   44  110 1    
    87   45   46 1    
    88   45   47 1    
    89   45  111 1    
    90   46  112 1    
    91   46  113 1    
    92   46  114 1    
    93   47   48 2    
    94   47   49 am   BACKBONE|DICT|INTERRES
    95   49   50 1    
    96   49  115 1    
    97   50   51 1    
    98   50   52 1    
    99   50  116 1    
   100   51  117 1    
   101   51  118 1    
   102   51  119 1    
   103   52   53 2    
   104   52   54 am   BACKBONE|DICT|INTERRES
   105   54   55 1    
   106   54  120 1    
   107   55   56 1    
   108   55   57 1    
   109   55  121 1    
   110   56  122 1    
   111   56  123 1    
   112   56  124 1    
   113   57   58 2    
   114   57   59 am   BACKBONE|DICT|INTERRES
   115   59   60 1    
   116   59  125 1    
   117   60   61 1    
   118   60   62 1    
   119   60  126 1    
   120   61  127 1    
   121   61  128 1    
   122   61  129 1    
   123   62   63 2    
   124   62   64 am   BACKBONE|DICT|INTERRES
   125   64   65 1    
   126   64  130 1    
   127   65   66 1    
   128   65   69 1    
   129   65  131 1    
   130   66   67 am   BACKBONE|DICT|INTERRES
   131   66   68 2    
   132   67  132 1    
   133   67  133 1    
   134   69   70 1    
   135   69  134 1    
   136   69  135 1    
   137   70   71 1    
   138   71  136 1    
   139   71  137 1    
@<TRIPOS>SUBSTRUCTURE
     1 UNK         1 GROUP             0       ****    0 ROOT    
