@<TRIPOS>MOLECULE
3R136
137   139    1
SMALL
USER_CHARGES


@<TRIPOS>ATOM
      1 CA         28.7652   22.6407   -4.8219 C.3       0 UNK        -0.1979 
      2 C          28.9466   23.2375   -3.4348 C.2       0 UNK         0.4864 
      3 O          28.3069   24.2388   -3.1137 O.2       0 UNK        -0.5359 
      4 N          29.7999   22.6217   -2.6029 N.am      1 UNK        -0.4318 
      5 CA         30.1398   23.0599   -1.2402 C.3       1 UNK         0.0824 
      6 C6         31.2280   22.1472   -0.6212 C.3       12 UNK        -0.0944 
      7 S7         32.1889   22.9698    0.6953 S.3       12 UNK        -0.2672 
      8 C8         31.8597   21.9222    2.1494 C.3       12 UNK         0.0333 
      9 C9         31.2208   22.7198    3.2750 C.ar      12 UNK        -0.0807 
     10 C10        32.0216   23.4510    4.1560 C.ar      12 UNK        -0.0894 
     11 C11        31.4482   24.1813    5.2016 C.ar      12 UNK        -0.0804 
     12 C12        30.0605   24.1577    5.3762 C.ar      12 UNK        -0.0824 
     13 C13        29.2494   23.4253    4.5021 C.ar      12 UNK        -0.0762 
     14 C14        29.8347   22.7138    3.4504 C.ar      12 UNK        -0.0782 
     15 C15        27.7415   23.3783    4.6981 C.3       12 UNK         0.0230 
     16 S16        26.8734   24.4725    3.5329 S.3       12 UNK        -0.2608 
     17 C17        27.2158   26.1185    4.2356 C.3       12 UNK        -0.0989 
     18 CA         28.3340   26.8840    3.4836 C.3       5 UNK         0.0716 
     19 N          28.0077   27.0740    2.0702 N.am      5 UNK        -0.4135 
     20 C          28.8955   27.4027    1.1258 C.2       4 UNK         0.5031 
     21 O          30.0984   27.5413    1.3431 O.2       4 UNK        -0.5229 
     22 CA         28.3429   27.6038   -0.2935 C.3       4 UNK         0.0329 
     23 CB         29.4470   27.6392   -1.3670 C.3       4 UNK        -0.2001 
     24 N          27.3869   26.5470   -0.6218 N.am      4 UNK        -0.4303 
     25 C          26.1978   26.7321   -1.2118 C.2       3 UNK         0.5044 
     26 O          25.7493   27.8442   -1.4940 O.2       3 UNK        -0.5152 
     27 CA         25.3570   25.4878   -1.5603 C.3       3 UNK         0.0319 
     28 CB         25.0441   25.4427   -3.0668 C.3       3 UNK        -0.2001 
     29 N          26.0289   24.2425   -1.1836 N.am      3 UNK        -0.4354 
     30 C          25.7476   23.5206   -0.0888 C.2       2 UNK         0.4964 
     31 O          24.8158   23.7798    0.6728 O.2       2 UNK        -0.5047 
     32 CA         26.6424   22.3024    0.2242 C.3       2 UNK         0.0288 
     33 CB         25.8967   20.9940   -0.0819 C.3       2 UNK        -0.2113 
     34 N          27.9307   22.2879   -0.4773 N.am      2 UNK        -0.4145 
     35 C          28.9068   23.1946   -0.3193 C.2       1 UNK         0.5006 
     36 O          28.8237   24.1480    0.4523 O.2       1 UNK        -0.5103 
     37 C          28.5714   28.2379    4.1803 C.2       5 UNK         0.5055 
     38 O          27.9253   29.2289    3.8292 O.2       5 UNK        -0.5220 
     39 N          29.4206   28.2141    5.2173 N.am      6 UNK        -0.4450 
     40 CA         29.6181   29.2396    6.2471 C.3       6 UNK         0.0367 
     41 CB         28.4435   29.1972    7.2506 C.3       6 UNK        -0.1929 
     42 C          29.8970   30.6447    5.6836 C.2       6 UNK         0.5070 
     43 O          31.0203   30.9054    5.2510 O.2       6 UNK        -0.5237 
     44 N          28.8715   31.5090    5.7059 N.am      7 UNK        -0.4739 
     45 CA         28.8864   32.9319    5.3494 C.3       7 UNK         0.0276 
     46 CB         27.5071   33.5329    5.6682 C.3       7 UNK        -0.1927 
     47 C          29.2961   33.2630    3.9028 C.2       7 UNK         0.5013 
     48 O          29.5332   34.4369    3.6093 O.2       7 UNK        -0.5193 
     49 N          29.4059   32.2534    3.0289 N.am      8 UNK        -0.4253 
     50 CA         30.0418   32.3428    1.7126 C.3       8 UNK         0.0242 
     51 CB         29.6881   31.0806    0.9077 C.3       8 UNK        -0.2000 
     52 C          31.5660   32.5294    1.8639 C.2       8 UNK         0.4948 
     53 O          32.3291   31.5839    1.6554 O.2       8 UNK        -0.5275 
     54 N          31.9707   33.7340    2.2898 N.am      9 UNK        -0.4246 
     55 CA         33.3147   34.1659    2.6905 C.3       9 UNK         0.0261 
     56 CB         34.3217   34.0808    1.5241 C.3       9 UNK        -0.1959 
     57 C          33.8150   33.4387    3.9514 C.2       9 UNK         0.5033 
     58 O          33.9377   34.0671    5.0036 O.2       9 UNK        -0.5390 
     59 N          34.0748   32.1360    3.8169 N.am      10 UNK        -0.4215 
     60 CA         34.5127   31.2067    4.8536 C.3       10 UNK         0.0240 
     61 CB         35.9369   31.5510    5.3442 C.3       10 UNK        -0.1982 
     62 C          34.4154   29.7927    4.2659 C.2       10 UNK         0.4970 
     63 O          35.4449   29.1635    4.0143 O.2       10 UNK        -0.4916 
     64 N          33.1795   29.3478    4.0041 N.am      11 UNK        -0.4279 
     65 CA         32.8536   28.0737    3.3349 C.3       11 UNK         0.1003 
     66 C          33.3936   27.9773    1.8711 C.2       11 UNK         0.5709 
     67 N          33.3930   29.0590    1.1017 N.am      11 UNK        -0.7358 
     68 O          33.8327   26.9217    1.4190 O.2       11 UNK        -0.4999 
     69 C69        33.2158   26.8233    4.1916 C.3       12 UNK        -0.0954 
     70 S70        32.3335   26.7589    5.7859 S.3       12 UNK        -0.2268 
     71 C71        32.3338   24.9747    6.1538 C.3       12 UNK         0.0203 
     72 H72        29.4232   21.7876   -4.9882 H         1 UNK         0.0888 
     73 H73        27.7352   22.3088   -4.9556 H         1 UNK         0.0888 
     74 H74        28.9827   23.3909   -5.5828 H         1 UNK         0.0888 
     75 H75        30.2882   21.8001   -2.9305 H         1 UNK         0.3017 
     76 H76        30.5583   24.0632   -1.3484 H         1 UNK         0.0873 
     77 H77        30.8017   21.2033   -0.2775 H         1 UNK         0.0745 
     78 H78        31.9551   21.8715   -1.3870 H         1 UNK         0.0745 
     79 H79        31.2281   21.0716    1.8918 H         1 UNK         0.0705 
     80 H80        32.8039   21.4963    2.4918 H         1 UNK         0.0705 
     81 H81        33.0946   23.4573    4.0204 H         1 UNK         0.1334 
     82 H82        29.6147   24.7074    6.1938 H         1 UNK         0.1417 
     83 H83        29.2080   22.1554    2.7684 H         1 UNK         0.1562 
     84 H84        27.4704   23.6354    5.7232 H         1 UNK         0.0748 
     85 H85        27.3906   22.3571    4.5418 H         1 UNK         0.0748 
     86 H86        27.4653   26.0068    5.2926 H         1 UNK         0.0940 
     87 H87        26.2836   26.6871    4.2121 H         1 UNK         0.0940 
     88 H88        29.2555   26.2994    3.5379 H         1 UNK         0.0703 
     89 H89        27.0363   26.9797    1.8173 H         1 UNK         0.3081 
     90 H90        27.8446   28.5748   -0.2863 H         1 UNK         0.0719 
     91 H91        30.0036   26.7022   -1.3957 H         1 UNK         0.0809 
     92 H92        29.0297   27.8114   -2.3589 H         1 UNK         0.0809 
     93 H93        30.1609   28.4402   -1.1704 H         1 UNK         0.0809 
     94 H94        27.6799   25.6075   -0.3693 H         1 UNK         0.2990 
     95 H95        24.4096   25.5832   -1.0259 H         1 UNK         0.0690 
     96 H96        24.4477   24.5667   -3.3221 H         1 UNK         0.0788 
     97 H97        25.9536   25.4164   -3.6682 H         1 UNK         0.0788 
     98 H98        24.4758   26.3209   -3.3755 H         1 UNK         0.0788 
     99 H99        26.8232   23.9864   -1.7627 H         1 UNK         0.2993 
    100 H100       26.8528   22.3344    1.2947 H         1 UNK         0.0949 
    101 H101       24.9470   20.9507    0.4536 H         1 UNK         0.0767 
    102 H102       25.6761   20.8955   -1.1450 H         1 UNK         0.0767 
    103 H103       26.4777   20.1243    0.2243 H         1 UNK         0.0767 
    104 H104       28.0678   21.5544   -1.1574 H         1 UNK         0.3013 
    105 H105       29.9614   27.3718    5.3637 H         1 UNK         0.3121 
    106 H106       30.5185   28.9593    6.7957 H         1 UNK         0.0774 
    107 H107       28.3947   28.2295    7.7498 H         1 UNK         0.0815 
    108 H108       28.5623   29.9499    8.0314 H         1 UNK         0.0815 
    109 H109       27.4791   29.3636    6.7695 H         1 UNK         0.0815 
    110 H110       27.9848   31.1512    6.0307 H         1 UNK         0.2987 
    111 H111       29.6255   33.4134    5.9932 H         1 UNK         0.0949 
    112 H112       27.4860   34.6036    5.4586 H         1 UNK         0.0806 
    113 H113       27.2517   33.4088    6.7208 H         1 UNK         0.0806 
    114 H114       26.7194   33.0693    5.0728 H         1 UNK         0.0806 
    115 H115       29.1885   31.3239    3.3651 H         1 UNK         0.3010 
    116 H116       29.6427   33.2097    1.1818 H         1 UNK         0.0829 
    117 H117       28.6106   30.9761    0.7808 H         1 UNK         0.0813 
    118 H118       30.1339   31.1117   -0.0872 H         1 UNK         0.0813 
    119 H119       30.0568   30.1815    1.4013 H         1 UNK         0.0813 
    120 H120       31.2273   34.3827    2.5328 H         1 UNK         0.3038 
    121 H121       33.2192   35.2201    2.9559 H         1 UNK         0.0769 
    122 H122       34.4640   33.0614    1.1652 H         1 UNK         0.0811 
    123 H123       35.2997   34.4546    1.8297 H         1 UNK         0.0811 
    124 H124       33.9945   34.6863    0.6789 H         1 UNK         0.0811 
    125 H125       33.8268   31.7167    2.9242 H         1 UNK         0.3204 
    126 H126       33.8224   31.2688    5.6972 H         1 UNK         0.0748 
    127 H127       35.9689   32.5195    5.8427 H         1 UNK         0.0771 
    128 H128       36.2905   30.8112    6.0635 H         1 UNK         0.0771 
    129 H129       36.6511   31.5754    4.5205 H         1 UNK         0.0771 
    130 H130       32.3890   29.9340    4.2590 H         1 UNK         0.2980 
    131 H131       31.7699   28.0780    3.2298 H         1 UNK         0.0545 
    132 H132       33.7457   28.9855    0.1623 H         1 UNK         0.3459 
    133 H133       32.9862   29.9374    1.4163 H         1 UNK         0.3459 
    134 H134       34.2886   26.7729    4.3813 H         1 UNK         0.0616 
    135 H135       32.9659   25.9219    3.6342 H         1 UNK         0.0616 
    136 H136       33.3600   24.6046    6.1271 H         1 UNK         0.0634 
    137 H137       31.9851   24.8291    7.1772 H         1 UNK         0.0634 
@<TRIPOS>BOND
     1    1    2 1    
     2    1   72 1    
     3    1   73 1    
     4    1   74 1    
     5    2    3 2    
     6    2    4 am   BACKBONE|DICT|INTERRES
     7    4    5 1    
     8    4   75 1    
     9    5    6 1    
    10    5   35 1    
    11    5   76 1    
    12    6    7 1    
    13    6   77 1    
    14    6   78 1    
    15    7    8 1    
    16    8    9 1    
    17    8   79 1    
    18    8   80 1    
    19    9   10 ar   
    20    9   14 ar   
    21   10   11 ar   
    22   10   81 1    
    23   11   12 ar   
    24   11   71 1    
    25   12   13 ar   
    26   12   82 1    
    27   13   14 ar   
    28   13   15 1    
    29   14   83 1    
    30   15   16 1    
    31   15   84 1    
    32   15   85 1    
    33   16   17 1    
    34   17   18 1    
    35   17   86 1    
    36   17   87 1    
    37   18   19 1    
    38   18   37 1    
    39   18   88 1    
    40   19   20 am   BACKBONE|DICT|INTERRES
    41   19   89 1    
    42   20   21 2    
    43   20   22 1    
    44   22   23 1    
    45   22   24 1    
    46   22   90 1    
    47   23   91 1    
    48   23   92 1    
    49   23   93 1    
    50   24   25 am   BACKBONE|DICT|INTERRES
    51   24   94 1    
    52   25   26 2    
    53   25   27 1    
    54   27   28 1    
    55   27   29 1    
    56   27   95 1    
    57   28   96 1    
    58   28   97 1    
    59   28   98 1    
    60   29   30 am   BACKBONE|DICT|INTERRES
    61   29   99 1    
    62   30   31 2    
    63   30   32 1    
    64   32   33 1    
    65   32   34 1    
    66   32  100 1    
    67   33  101 1    
    68   33  102 1    
    69   33  103 1    
    70   34   35 am   BACKBONE|DICT|INTERRES
    71   34  104 1    
    72   35   36 2    
    73   37   38 2    
    74   37   39 am   BACKBONE|DICT|INTERRES
    75   39   40 1    
    76   39  105 1    
    77   40   41 1    
    78   40   42 1    
    79   40  106 1    
    80   41  107 1    
    81   41  108 1    
    82   41  109 1    
    83   42   43 2    
    84   42   44 am   BACKBONE|DICT|INTERRES
    85   44   45 1    
    86   44  110 1    
    87   45   46 1    
    88   45   47 1    
    89   45  111 1    
    90   46  112 1    
    91   46  113 1    
    92   46  114 1    
    93   47   48 2    
    94   47   49 am   BACKBONE|DICT|INTERRES
    95   49   50 1    
    96   49  115 1    
    97   50   51 1    
    98   50   52 1    
    99   50  116 1    
   100   51  117 1    
   101   51  118 1    
   102   51  119 1    
   103   52   53 2    
   104   52   54 am   BACKBONE|DICT|INTERRES
   105   54   55 1    
   106   54  120 1    
   107   55   56 1    
   108   55   57 1    
   109   55  121 1    
   110   56  122 1    
   111   56  123 1    
   112   56  124 1    
   113   57   58 2    
   114   57   59 am   BACKBONE|DICT|INTERRES
   115   59   60 1    
   116   59  125 1    
   117   60   61 1    
   118   60   62 1    
   119   60  126 1    
   120   61  127 1    
   121   61  128 1    
   122   61  129 1    
   123   62   63 2    
   124   62   64 am   BACKBONE|DICT|INTERRES
   125   64   65 1    
   126   64  130 1    
   127   65   66 1    
   128   65   69 1    
   129   65  131 1    
   130   66   67 am   BACKBONE|DICT|INTERRES
   131   66   68 2    
   132   67  132 1    
   133   67  133 1    
   134   69   70 1    
   135   69  134 1    
   136   69  135 1    
   137   70   71 1    
   138   71  136 1    
   139   71  137 1    
@<TRIPOS>SUBSTRUCTURE
     1 UNK         1 GROUP             0       ****    0 ROOT    
