@<TRIPOS>MOLECULE
3R136
137   139    1
SMALL
USER_CHARGES


@<TRIPOS>ATOM
      1 CA         29.7306   19.1666   -2.1189 C.3       0 UNK        -0.1979 
      2 C          29.8950   20.3810   -1.2168 C.2       0 UNK         0.4864 
      3 O          30.4243   20.2554   -0.1116 O.2       0 UNK        -0.5359 
      4 N          29.4478   21.5530   -1.6783 N.am      1 UNK        -0.4318 
      5 CA         29.5396   22.8310   -0.9781 C.3       1 UNK         0.0824 
      6 C6         28.4307   22.9876    0.0985 C.3       12 UNK        -0.0944 
      7 S7         28.8981   24.1730    1.4008 S.3       12 UNK        -0.2672 
      8 C8         29.5967   23.0277    2.6258 C.3       12 UNK         0.0333 
      9 C9         30.2195   23.7805    3.7884 C.ar      12 UNK        -0.0807 
     10 C10        31.5758   24.1174    3.7606 C.ar      12 UNK        -0.0894 
     11 C11        32.1610   24.7947    4.8344 C.ar      12 UNK        -0.0804 
     12 C12        31.3758   25.1387    5.9397 C.ar      12 UNK        -0.0824 
     13 C13        30.0202   24.7959    5.9833 C.ar      12 UNK        -0.0762 
     14 C14        29.4466   24.1192    4.9026 C.ar      12 UNK        -0.0782 
     15 C15        29.1901   25.1206    7.2171 C.3       12 UNK         0.0230 
     16 S16        28.5185   26.8110    7.1690 S.3       12 UNK        -0.2608 
     17 C17        27.1588   26.6586    5.9589 C.3       12 UNK        -0.0989 
     18 CA         27.4747   27.3248    4.5943 C.3       5 UNK         0.0716 
     19 N          26.6099   26.7795    3.5337 N.am      5 UNK        -0.4135 
     20 C          26.6106   27.1437    2.2434 C.2       4 UNK         0.5031 
     21 O          27.3184   28.0394    1.7820 O.2       4 UNK        -0.5229 
     22 CA         25.5973   26.4454    1.3315 C.3       4 UNK         0.0329 
     23 CB         24.1756   26.9746    1.6143 C.3       4 UNK        -0.2001 
     24 N          25.9618   26.6933   -0.0633 N.am      4 UNK        -0.4303 
     25 C          25.4569   26.0666   -1.1307 C.2       3 UNK         0.5044 
     26 O          24.6321   25.1546   -1.0608 O.2       3 UNK        -0.5152 
     27 CA         25.9481   26.5191   -2.5173 C.3       3 UNK         0.0319 
     28 CB         25.5088   27.9602   -2.8484 C.3       3 UNK        -0.2001 
     29 N          27.3859   26.3104   -2.7191 N.am      3 UNK        -0.4354 
     30 C          28.4170   26.9472   -2.1477 C.2       2 UNK         0.4964 
     31 O          28.3031   27.8920   -1.3681 O.2       2 UNK        -0.5047 
     32 CA         29.8078   26.3657   -2.4548 C.3       2 UNK         0.0288 
     33 CB         30.9518   27.3458   -2.1336 C.3       2 UNK        -0.2113 
     34 N          29.9879   25.1336   -1.6861 N.am      2 UNK        -0.4145 
     35 C          29.4701   23.9476   -2.0304 C.2       1 UNK         0.5006 
     36 O          28.9078   23.7351   -3.1106 O.2       1 UNK        -0.5103 
     37 C          27.4401   28.8699    4.7022 C.2       5 UNK         0.5055 
     38 O          28.4661   29.4857    4.9912 O.2       5 UNK        -0.5220 
     39 N          26.2682   29.4707    4.4437 N.am      6 UNK        -0.4450 
     40 CA         26.0621   30.9218    4.4260 C.3       6 UNK         0.0367 
     41 CB         24.5545   31.2165    4.3688 C.3       6 UNK        -0.1929 
     42 C          26.7923   31.6394    3.2742 C.2       6 UNK         0.5070 
     43 O          27.1502   32.8073    3.4295 O.2       6 UNK        -0.5237 
     44 N          26.9933   30.9433    2.1475 N.am      7 UNK        -0.4739 
     45 CA         27.7387   31.4359    0.9886 C.3       7 UNK         0.0276 
     46 CB         27.0757   30.9211   -0.2977 C.3       7 UNK        -0.1927 
     47 C          29.2134   31.0122    1.0607 C.2       7 UNK         0.5013 
     48 O          30.0899   31.8177    0.7426 O.2       7 UNK        -0.5193 
     49 N          29.4731   29.7817    1.5238 N.am      8 UNK        -0.4253 
     50 CA         30.7945   29.1878    1.7461 C.3       8 UNK         0.0242 
     51 CB         30.6373   27.6561    1.8283 C.3       8 UNK        -0.2000 
     52 C          31.5099   29.7673    2.9864 C.2       8 UNK         0.4948 
     53 O          31.9967   29.0153    3.8294 O.2       8 UNK        -0.5275 
     54 N          31.5782   31.1007    3.0823 N.am      9 UNK        -0.4246 
     55 CA         32.1984   31.8275    4.1928 C.3       9 UNK         0.0261 
     56 CB         31.7813   33.3051    4.1241 C.3       9 UNK        -0.1959 
     57 C          33.7314   31.6976    4.2275 C.2       9 UNK         0.5033 
     58 O          34.3176   31.7757    5.3080 O.2       9 UNK        -0.5390 
     59 N          34.3517   31.4958    3.0552 N.am      10 UNK        -0.4215 
     60 CA         35.8028   31.4039    2.8620 C.3       10 UNK         0.0240 
     61 CB         36.1078   31.3037    1.3584 C.3       10 UNK        -0.1982 
     62 C          36.4787   30.2498    3.6241 C.2       10 UNK         0.4970 
     63 O          37.6313   30.4013    4.0312 O.2       10 UNK        -0.4916 
     64 N          35.7596   29.1357    3.8079 N.am      11 UNK        -0.4279 
     65 CA         36.1977   27.9764    4.5996 C.3       11 UNK         0.1003 
     66 C          35.7793   28.0385    6.0990 C.2       11 UNK         0.5709 
     67 N          35.1517   29.1067    6.5797 N.am      11 UNK        -0.7358 
     68 O          36.0547   27.1079    6.8526 O.2       11 UNK        -0.4999 
     69 C69        35.8294   26.6357    3.9070 C.3       12 UNK        -0.0954 
     70 S70        34.0453   26.4098    3.6011 S.3       12 UNK        -0.2268 
     71 C71        33.6482   25.1171    4.8155 C.3       12 UNK         0.0203 
     72 H72        29.2452   19.4217   -3.0609 H         1 UNK         0.0888 
     73 H73        30.7042   18.7329   -2.3455 H         1 UNK         0.0888 
     74 H74        29.1266   18.4086   -1.6208 H         1 UNK         0.0888 
     75 H75        29.0527   21.6307   -2.6085 H         1 UNK         0.3017 
     76 H76        30.5243   22.8784   -0.5067 H         1 UNK         0.0873 
     77 H77        27.4828   23.3015   -0.3445 H         1 UNK         0.0745 
     78 H78        28.2204   22.0285    0.5744 H         1 UNK         0.0745 
     79 H79        28.8133   22.3594    2.9866 H         1 UNK         0.0705 
     80 H80        30.3450   22.3943    2.1459 H         1 UNK         0.0705 
     81 H81        32.1798   23.8505    2.9040 H         1 UNK         0.1334 
     82 H82        31.8224   25.6595    6.7759 H         1 UNK         0.1417 
     83 H83        28.4008   23.8461    4.9296 H         1 UNK         0.1562 
     84 H84        29.8119   25.0207    8.1081 H         1 UNK         0.0748 
     85 H85        28.3786   24.4014    7.3390 H         1 UNK         0.0748 
     86 H86        26.2525   27.0803    6.3986 H         1 UNK         0.0940 
     87 H87        26.9425   25.5988    5.8209 H         1 UNK         0.0940 
     88 H88        28.4930   27.0493    4.3149 H         1 UNK         0.0703 
     89 H89        25.9743   26.0485    3.8174 H         1 UNK         0.3081 
     90 H90        25.6441   25.3710    1.5212 H         1 UNK         0.0719 
     91 H91        24.0985   28.0434    1.4094 H         1 UNK         0.0809 
     92 H92        23.4283   26.4659    1.0055 H         1 UNK         0.0809 
     93 H93        23.8909   26.8192    2.6554 H         1 UNK         0.0809 
     94 H94        26.7050   27.3765   -0.1977 H         1 UNK         0.2990 
     95 H95        25.4610   25.8672   -3.2445 H         1 UNK         0.0690 
     96 H96        25.7975   28.2378   -3.8621 H         1 UNK         0.0788 
     97 H97        25.9387   28.6936   -2.1672 H         1 UNK         0.0788 
     98 H98        24.4246   28.0582   -2.7818 H         1 UNK         0.0788 
     99 H99        27.6190   25.4947   -3.2747 H         1 UNK         0.2993 
    100 H100       29.8541   26.1425   -3.5233 H         1 UNK         0.0949 
    101 H101       30.8343   28.2744   -2.6936 H         1 UNK         0.0767 
    102 H102       30.9853   27.6087   -1.0773 H         1 UNK         0.0767 
    103 H103       31.9204   26.9247   -2.4035 H         1 UNK         0.0767 
    104 H104       30.3763   25.2371   -0.7590 H         1 UNK         0.3013 
    105 H105       25.4713   28.8941    4.2178 H         1 UNK         0.3121 
    106 H106       26.4538   31.3264    5.3619 H         1 UNK         0.0774 
    107 H107       24.3673   32.2913    4.3818 H         1 UNK         0.0815 
    108 H108       24.0986   30.8183    3.4613 H         1 UNK         0.0815 
    109 H109       24.0322   30.7891    5.2249 H         1 UNK         0.0815 
    110 H110       26.7341   29.9635    2.1269 H         1 UNK         0.2987 
    111 H111       27.7116   32.5277    0.9639 H         1 UNK         0.0949 
    112 H112       26.9805   29.8363   -0.2906 H         1 UNK         0.0806 
    113 H113       26.0775   31.3406   -0.4223 H         1 UNK         0.0806 
    114 H114       27.6574   31.1939   -1.1792 H         1 UNK         0.0806 
    115 H115       28.6796   29.1732    1.7198 H         1 UNK         0.3010 
    116 H116       31.4148   29.4148    0.8769 H         1 UNK         0.0829 
    117 H117       30.0411   27.2644    1.0044 H         1 UNK         0.0813 
    118 H118       31.6078   27.1601    1.7986 H         1 UNK         0.0813 
    119 H119       30.1495   27.3509    2.7536 H         1 UNK         0.0813 
    120 H120       31.1468   31.6461    2.3407 H         1 UNK         0.3038 
    121 H121       31.8134   31.4071    5.1247 H         1 UNK         0.0769 
    122 H122       32.1189   33.7787    3.2013 H         1 UNK         0.0811 
    123 H123       32.2058   33.8695    4.9557 H         1 UNK         0.0811 
    124 H124       30.6976   33.4133    4.1800 H         1 UNK         0.0811 
    125 H125       33.7789   31.4425    2.2256 H         1 UNK         0.3204 
    126 H126       36.2372   32.3334    3.2361 H         1 UNK         0.0748 
    127 H127       35.7277   32.1699    0.8165 H         1 UNK         0.0771 
    128 H128       37.1834   31.2603    1.1801 H         1 UNK         0.0771 
    129 H129       35.6681   30.4090    0.9155 H         1 UNK         0.0771 
    130 H130       34.8065   29.0994    3.4745 H         1 UNK         0.2980 
    131 H131       37.2884   27.9894    4.6347 H         1 UNK         0.0545 
    132 H132       34.9003   29.1261    7.5548 H         1 UNK         0.3459 
    133 H133       34.9370   29.9027    5.9915 H         1 UNK         0.3459 
    134 H134       36.2188   25.7888    4.4748 H         1 UNK         0.0616 
    135 H135       36.3305   26.5857    2.9393 H         1 UNK         0.0616 
    136 H136       34.2110   24.2137    4.5762 H         1 UNK         0.0634 
    137 H137       33.9821   25.4392    5.8028 H         1 UNK         0.0634 
@<TRIPOS>BOND
     1    1    2 1    
     2    1   72 1    
     3    1   73 1    
     4    1   74 1    
     5    2    3 2    
     6    2    4 am   BACKBONE|DICT|INTERRES
     7    4    5 1    
     8    4   75 1    
     9    5    6 1    
    10    5   35 1    
    11    5   76 1    
    12    6    7 1    
    13    6   77 1    
    14    6   78 1    
    15    7    8 1    
    16    8    9 1    
    17    8   79 1    
    18    8   80 1    
    19    9   10 ar   
    20    9   14 ar   
    21   10   11 ar   
    22   10   81 1    
    23   11   12 ar   
    24   11   71 1    
    25   12   13 ar   
    26   12   82 1    
    27   13   14 ar   
    28   13   15 1    
    29   14   83 1    
    30   15   16 1    
    31   15   84 1    
    32   15   85 1    
    33   16   17 1    
    34   17   18 1    
    35   17   86 1    
    36   17   87 1    
    37   18   19 1    
    38   18   37 1    
    39   18   88 1    
    40   19   20 am   BACKBONE|DICT|INTERRES
    41   19   89 1    
    42   20   21 2    
    43   20   22 1    
    44   22   23 1    
    45   22   24 1    
    46   22   90 1    
    47   23   91 1    
    48   23   92 1    
    49   23   93 1    
    50   24   25 am   BACKBONE|DICT|INTERRES
    51   24   94 1    
    52   25   26 2    
    53   25   27 1    
    54   27   28 1    
    55   27   29 1    
    56   27   95 1    
    57   28   96 1    
    58   28   97 1    
    59   28   98 1    
    60   29   30 am   BACKBONE|DICT|INTERRES
    61   29   99 1    
    62   30   31 2    
    63   30   32 1    
    64   32   33 1    
    65   32   34 1    
    66   32  100 1    
    67   33  101 1    
    68   33  102 1    
    69   33  103 1    
    70   34   35 am   BACKBONE|DICT|INTERRES
    71   34  104 1    
    72   35   36 2    
    73   37   38 2    
    74   37   39 am   BACKBONE|DICT|INTERRES
    75   39   40 1    
    76   39  105 1    
    77   40   41 1    
    78   40   42 1    
    79   40  106 1    
    80   41  107 1    
    81   41  108 1    
    82   41  109 1    
    83   42   43 2    
    84   42   44 am   BACKBONE|DICT|INTERRES
    85   44   45 1    
    86   44  110 1    
    87   45   46 1    
    88   45   47 1    
    89   45  111 1    
    90   46  112 1    
    91   46  113 1    
    92   46  114 1    
    93   47   48 2    
    94   47   49 am   BACKBONE|DICT|INTERRES
    95   49   50 1    
    96   49  115 1    
    97   50   51 1    
    98   50   52 1    
    99   50  116 1    
   100   51  117 1    
   101   51  118 1    
   102   51  119 1    
   103   52   53 2    
   104   52   54 am   BACKBONE|DICT|INTERRES
   105   54   55 1    
   106   54  120 1    
   107   55   56 1    
   108   55   57 1    
   109   55  121 1    
   110   56  122 1    
   111   56  123 1    
   112   56  124 1    
   113   57   58 2    
   114   57   59 am   BACKBONE|DICT|INTERRES
   115   59   60 1    
   116   59  125 1    
   117   60   61 1    
   118   60   62 1    
   119   60  126 1    
   120   61  127 1    
   121   61  128 1    
   122   61  129 1    
   123   62   63 2    
   124   62   64 am   BACKBONE|DICT|INTERRES
   125   64   65 1    
   126   64  130 1    
   127   65   66 1    
   128   65   69 1    
   129   65  131 1    
   130   66   67 am   BACKBONE|DICT|INTERRES
   131   66   68 2    
   132   67  132 1    
   133   67  133 1    
   134   69   70 1    
   135   69  134 1    
   136   69  135 1    
   137   70   71 1    
   138   71  136 1    
   139   71  137 1    
@<TRIPOS>SUBSTRUCTURE
     1 UNK         1 GROUP             0       ****    0 ROOT    
