@<TRIPOS>MOLECULE
3R136
137   139    1
SMALL
USER_CHARGES


@<TRIPOS>ATOM
      1 CA         26.7863   25.1368    6.5749 C.3       0 UNK        -0.1979 
      2 C          27.2661   24.6911    5.2014 C.2       0 UNK         0.4864 
      3 O          27.4087   25.5362    4.3191 O.2       0 UNK        -0.5359 
      4 N          27.5300   23.3840    5.0489 N.am      1 UNK        -0.4318 
      5 CA         27.8937   22.6555    3.8225 C.3       1 UNK         0.0824 
      6 C6         29.3487   22.9040    3.3088 C.3       12 UNK        -0.0944 
      7 S7         29.6522   24.4523    2.3856 S.3       12 UNK        -0.2672 
      8 C8         31.3708   24.1990    1.8541 C.3       12 UNK         0.0333 
      9 C9         31.9069   25.4414    1.1615 C.ar      12 UNK        -0.0807 
     10 C10        32.6055   26.4052    1.8931 C.ar      12 UNK        -0.0894 
     11 C11        33.0806   27.5622    1.2724 C.ar      12 UNK        -0.0804 
     12 C12        32.8599   27.7486   -0.0950 C.ar      12 UNK        -0.0824 
     13 C13        32.1517   26.7996   -0.8383 C.ar      12 UNK        -0.0762 
     14 C14        31.6896   25.6394   -0.2056 C.ar      12 UNK        -0.0782 
     15 C15        31.8820   27.0399   -2.3184 C.3       12 UNK         0.0230 
     16 S16        30.0978   27.0025   -2.6887 S.3       12 UNK        -0.2608 
     17 C17        29.9001   28.3277   -3.9356 C.3       12 UNK        -0.0989 
     18 CA         28.8785   29.4212   -3.5265 C.3       5 UNK         0.0716 
     19 N          27.5697   28.8487   -3.1858 N.am      5 UNK        -0.4135 
     20 C          26.4257   29.5365   -3.0823 C.2       4 UNK         0.5031 
     21 O          26.3142   30.7234   -3.3916 O.2       4 UNK        -0.5229 
     22 CA         25.2041   28.7976   -2.5061 C.3       4 UNK         0.0329 
     23 CB         24.5331   27.8995   -3.5644 C.3       4 UNK        -0.2001 
     24 N          25.4790   28.0725   -1.2551 N.am      4 UNK        -0.4303 
     25 C          26.2185   26.9706   -1.0636 C.2       3 UNK         0.5044 
     26 O          26.8084   26.3834   -1.9728 O.2       3 UNK        -0.5152 
     27 CA         26.3776   26.4770    0.3906 C.3       3 UNK         0.0319 
     28 CB         25.2328   26.9060    1.3365 C.3       3 UNK        -0.2001 
     29 N          26.5959   25.0330    0.4813 N.am      3 UNK        -0.4354 
     30 C          25.7786   24.0532    0.0649 C.2       2 UNK         0.4964 
     31 O          24.6888   24.2359   -0.4798 O.2       2 UNK        -0.5047 
     32 CA         26.2543   22.6108    0.3208 C.3       2 UNK         0.0288 
     33 CB         26.9653   22.0507   -0.9222 C.3       2 UNK        -0.2113 
     34 N          27.1499   22.5026    1.4766 N.am      2 UNK        -0.4145 
     35 C          26.7791   22.6989    2.7505 C.2       1 UNK         0.5006 
     36 O          25.6050   22.8671    3.0931 O.2       1 UNK        -0.5103 
     37 C          29.4156   30.3357   -2.4011 C.2       5 UNK         0.5055 
     38 O          30.0642   31.3424   -2.6894 O.2       5 UNK        -0.5220 
     39 N          29.0949   29.9759   -1.1538 N.am      6 UNK        -0.4450 
     40 CA         29.3232   30.6861    0.0992 C.3       6 UNK         0.0367 
     41 CB         30.8296   30.8585    0.4024 C.3       6 UNK        -0.1929 
     42 C          28.5565   29.8758    1.1569 C.2       6 UNK         0.5070 
     43 O          27.4043   29.5201    0.9069 O.2       6 UNK        -0.5237 
     44 N          29.2026   29.5503    2.2780 N.am      7 UNK        -0.4739 
     45 CA         28.7565   28.6132    3.3049 C.3       7 UNK         0.0276 
     46 CB         27.6790   29.2553    4.1977 C.3       7 UNK        -0.1927 
     47 C          29.9921   28.2274    4.1242 C.2       7 UNK         0.5013 
     48 O          30.9649   28.9888    4.1288 O.2       7 UNK        -0.5193 
     49 N          29.9277   27.0868    4.8274 N.am      8 UNK        -0.4253 
     50 CA         31.0259   26.5053    5.6203 C.3       8 UNK         0.0242 
     51 CB         30.5271   25.2831    6.4042 C.3       8 UNK        -0.2000 
     52 C          31.7360   27.4764    6.5783 C.2       8 UNK         0.4948 
     53 O          32.9572   27.4046    6.7114 O.2       8 UNK        -0.5275 
     54 N          30.9705   28.3960    7.1826 N.am      9 UNK        -0.4246 
     55 CA         31.4541   29.4497    8.0787 C.3       9 UNK         0.0261 
     56 CB         30.2507   30.2362    8.6232 C.3       9 UNK        -0.1959 
     57 C          32.4800   30.4105    7.4461 C.2       9 UNK         0.5033 
     58 O          33.2990   30.9672    8.1786 O.2       9 UNK        -0.5390 
     59 N          32.4445   30.5791    6.1156 N.am      10 UNK        -0.4215 
     60 CA         33.4011   31.4006    5.3688 C.3       10 UNK         0.0240 
     61 CB         32.7528   31.8576    4.0504 C.3       10 UNK        -0.1982 
     62 C          34.7402   30.6859    5.1006 C.2       10 UNK         0.4970 
     63 O          35.6976   31.3579    4.7146 O.2       10 UNK        -0.4916 
     64 N          34.7884   29.3608    5.2920 N.am      11 UNK        -0.4279 
     65 CA         35.9522   28.4969    5.0353 C.3       11 UNK         0.1003 
     66 C          36.4841   27.8009    6.3224 C.2       11 UNK         0.5709 
     67 N          36.0052   28.1400    7.5138 N.am      11 UNK        -0.7358 
     68 O          37.3766   26.9593    6.2472 O.2       11 UNK        -0.4999 
     69 C69        35.6546   27.4885    3.8886 C.3       12 UNK        -0.0954 
     70 S70        35.5685   28.3081    2.2588 S.3       12 UNK        -0.2268 
     71 C71        33.7888   28.6343    2.0847 C.3       12 UNK         0.0203 
     72 H72        25.7183   25.3502    6.5437 H         1 UNK         0.0888 
     73 H73        26.9618   24.3758    7.3351 H         1 UNK         0.0888 
     74 H74        27.3037   26.0454    6.8810 H         1 UNK         0.0888 
     75 H75        27.3644   22.7813    5.8426 H         1 UNK         0.3017 
     76 H76        27.8820   21.6131    4.1450 H         1 UNK         0.0873 
     77 H77        30.0411   22.8670    4.1498 H         1 UNK         0.0745 
     78 H78        29.6513   22.0737    2.6682 H         1 UNK         0.0745 
     79 H79        31.9867   23.9552    2.7214 H         1 UNK         0.0705 
     80 H80        31.4236   23.3409    1.1824 H         1 UNK         0.0705 
     81 H81        32.7717   26.2619    2.9492 H         1 UNK         0.1334 
     82 H82        33.2222   28.6475   -0.5751 H         1 UNK         0.1417 
     83 H83        31.1373   24.9031   -0.7738 H         1 UNK         0.1562 
     84 H84        32.3869   26.2744   -2.9090 H         1 UNK         0.0748 
     85 H85        32.3062   27.9969   -2.6246 H         1 UNK         0.0748 
     86 H86        29.5650   27.8553   -4.8603 H         1 UNK         0.0940 
     87 H87        30.8635   28.7784   -4.1799 H         1 UNK         0.0940 
     88 H88        28.7291   30.0627   -4.3978 H         1 UNK         0.0703 
     89 H89        27.5581   27.8695   -2.9083 H         1 UNK         0.3081 
     90 H90        24.4790   29.5669   -2.2353 H         1 UNK         0.0719 
     91 H91        24.2315   28.4854   -4.4336 H         1 UNK         0.0809 
     92 H92        23.6366   27.4229   -3.1679 H         1 UNK         0.0809 
     93 H93        25.1990   27.1140   -3.9222 H         1 UNK         0.0809 
     94 H94        25.1049   28.5103   -0.4240 H         1 UNK         0.2990 
     95 H95        27.3002   26.9237    0.7602 H         1 UNK         0.0690 
     96 H96        25.3761   26.4879    2.3336 H         1 UNK         0.0788 
     97 H97        24.2592   26.5740    0.9740 H         1 UNK         0.0788 
     98 H98        25.1949   27.9889    1.4565 H         1 UNK         0.0788 
     99 H99        27.4718   24.7597    0.9056 H         1 UNK         0.2993 
    100 H100       25.3688   22.0022    0.5174 H         1 UNK         0.0949 
    101 H101       26.3127   22.0934   -1.7955 H         1 UNK         0.0767 
    102 H102       27.8662   22.6174   -1.1619 H         1 UNK         0.0767 
    103 H103       27.2494   21.0075   -0.7821 H         1 UNK         0.0767 
    104 H104       28.1306   22.3650    1.2790 H         1 UNK         0.3013 
    105 H105       28.5237   29.1486   -1.0401 H         1 UNK         0.3121 
    106 H106       28.8552   31.6695    0.0289 H         1 UNK         0.0774 
    107 H107       30.9839   31.4288    1.3190 H         1 UNK         0.0815 
    108 H108       31.3251   29.8972    0.5200 H         1 UNK         0.0815 
    109 H109       31.3441   31.4010   -0.3899 H         1 UNK         0.0815 
    110 H110       30.1593   29.8550    2.4146 H         1 UNK         0.2987 
    111 H111       28.3597   27.7154    2.8259 H         1 UNK         0.0949 
    112 H112       28.0500   30.1526    4.6944 H         1 UNK         0.0806 
    113 H113       26.7967   29.5313    3.6203 H         1 UNK         0.0806 
    114 H114       27.3495   28.5606    4.9714 H         1 UNK         0.0806 
    115 H115       29.0924   26.5169    4.7168 H         1 UNK         0.3010 
    116 H116       31.7762   26.1569    4.9118 H         1 UNK         0.0829 
    117 H117       30.1466   24.5143    5.7362 H         1 UNK         0.0813 
    118 H118       31.3366   24.8307    6.9791 H         1 UNK         0.0813 
    119 H119       29.7379   25.5468    7.1082 H         1 UNK         0.0813 
    120 H120       29.9794   28.3829    6.9915 H         1 UNK         0.3038 
    121 H121       31.9502   28.9579    8.9180 H         1 UNK         0.0769 
    122 H122       29.6929   30.7252    7.8234 H         1 UNK         0.0811 
    123 H123       30.5740   31.0137    9.3171 H         1 UNK         0.0811 
    124 H124       29.5633   29.5873    9.1662 H         1 UNK         0.0811 
    125 H125       31.7743   30.0499    5.5620 H         1 UNK         0.3204 
    126 H126       33.6260   32.2945    5.9547 H         1 UNK         0.0748 
    127 H127       32.5146   31.0156    3.4019 H         1 UNK         0.0771 
    128 H128       31.8309   32.4101    4.2325 H         1 UNK         0.0771 
    129 H129       33.4205   32.5167    3.4939 H         1 UNK         0.0771 
    130 H130       33.9771   28.8803    5.6648 H         1 UNK         0.2980 
    131 H131       36.7935   29.1127    4.7135 H         1 UNK         0.0545 
    132 H132       35.2694   28.8233    7.5949 H         1 UNK         0.3459 
    133 H133       36.3663   27.6854    8.3371 H         1 UNK         0.3459 
    134 H134       36.4452   26.7404    3.8120 H         1 UNK         0.0616 
    135 H135       34.7354   26.9355    4.0861 H         1 UNK         0.0616 
    136 H136       33.6623   29.6077    1.6090 H         1 UNK         0.0634 
    137 H137       33.3266   28.7178    3.0671 H         1 UNK         0.0634 
@<TRIPOS>BOND
     1    1    2 1    
     2    1   72 1    
     3    1   73 1    
     4    1   74 1    
     5    2    3 2    
     6    2    4 am   BACKBONE|DICT|INTERRES
     7    4    5 1    
     8    4   75 1    
     9    5    6 1    
    10    5   35 1    
    11    5   76 1    
    12    6    7 1    
    13    6   77 1    
    14    6   78 1    
    15    7    8 1    
    16    8    9 1    
    17    8   79 1    
    18    8   80 1    
    19    9   10 ar   
    20    9   14 ar   
    21   10   11 ar   
    22   10   81 1    
    23   11   12 ar   
    24   11   71 1    
    25   12   13 ar   
    26   12   82 1    
    27   13   14 ar   
    28   13   15 1    
    29   14   83 1    
    30   15   16 1    
    31   15   84 1    
    32   15   85 1    
    33   16   17 1    
    34   17   18 1    
    35   17   86 1    
    36   17   87 1    
    37   18   19 1    
    38   18   37 1    
    39   18   88 1    
    40   19   20 am   BACKBONE|DICT|INTERRES
    41   19   89 1    
    42   20   21 2    
    43   20   22 1    
    44   22   23 1    
    45   22   24 1    
    46   22   90 1    
    47   23   91 1    
    48   23   92 1    
    49   23   93 1    
    50   24   25 am   BACKBONE|DICT|INTERRES
    51   24   94 1    
    52   25   26 2    
    53   25   27 1    
    54   27   28 1    
    55   27   29 1    
    56   27   95 1    
    57   28   96 1    
    58   28   97 1    
    59   28   98 1    
    60   29   30 am   BACKBONE|DICT|INTERRES
    61   29   99 1    
    62   30   31 2    
    63   30   32 1    
    64   32   33 1    
    65   32   34 1    
    66   32  100 1    
    67   33  101 1    
    68   33  102 1    
    69   33  103 1    
    70   34   35 am   BACKBONE|DICT|INTERRES
    71   34  104 1    
    72   35   36 2    
    73   37   38 2    
    74   37   39 am   BACKBONE|DICT|INTERRES
    75   39   40 1    
    76   39  105 1    
    77   40   41 1    
    78   40   42 1    
    79   40  106 1    
    80   41  107 1    
    81   41  108 1    
    82   41  109 1    
    83   42   43 2    
    84   42   44 am   BACKBONE|DICT|INTERRES
    85   44   45 1    
    86   44  110 1    
    87   45   46 1    
    88   45   47 1    
    89   45  111 1    
    90   46  112 1    
    91   46  113 1    
    92   46  114 1    
    93   47   48 2    
    94   47   49 am   BACKBONE|DICT|INTERRES
    95   49   50 1    
    96   49  115 1    
    97   50   51 1    
    98   50   52 1    
    99   50  116 1    
   100   51  117 1    
   101   51  118 1    
   102   51  119 1    
   103   52   53 2    
   104   52   54 am   BACKBONE|DICT|INTERRES
   105   54   55 1    
   106   54  120 1    
   107   55   56 1    
   108   55   57 1    
   109   55  121 1    
   110   56  122 1    
   111   56  123 1    
   112   56  124 1    
   113   57   58 2    
   114   57   59 am   BACKBONE|DICT|INTERRES
   115   59   60 1    
   116   59  125 1    
   117   60   61 1    
   118   60   62 1    
   119   60  126 1    
   120   61  127 1    
   121   61  128 1    
   122   61  129 1    
   123   62   63 2    
   124   62   64 am   BACKBONE|DICT|INTERRES
   125   64   65 1    
   126   64  130 1    
   127   65   66 1    
   128   65   69 1    
   129   65  131 1    
   130   66   67 am   BACKBONE|DICT|INTERRES
   131   66   68 2    
   132   67  132 1    
   133   67  133 1    
   134   69   70 1    
   135   69  134 1    
   136   69  135 1    
   137   70   71 1    
   138   71  136 1    
   139   71  137 1    
@<TRIPOS>SUBSTRUCTURE
     1 UNK         1 GROUP             0       ****    0 ROOT    
