@<TRIPOS>MOLECULE
3R136
137   139    1
SMALL
USER_CHARGES


@<TRIPOS>ATOM
      1 CA         32.0450   24.2766   -1.5227 C.3       0 UNK        -0.1979 
      2 C          30.7422   23.9635   -0.8042 C.2       0 UNK         0.4864 
      3 O          29.9504   24.8743   -0.5546 O.2       0 UNK        -0.5359 
      4 N          30.5045   22.6884   -0.4695 N.am      1 UNK        -0.4318 
      5 CA         29.3114   22.2308    0.2489 C.3       1 UNK         0.0824 
      6 C6         29.3789   20.7323    0.6350 C.3       12 UNK        -0.0944 
      7 S7         30.8219   20.3243    1.6752 S.3       12 UNK        -0.2672 
      8 C8         30.1074   20.3650    3.3512 C.3       12 UNK         0.0333 
      9 C9         29.8946   21.7926    3.8324 C.ar      12 UNK        -0.0807 
     10 C10        30.9662   22.5143    4.3682 C.ar      12 UNK        -0.0894 
     11 C11        30.7893   23.8341    4.7920 C.ar      12 UNK        -0.0804 
     12 C12        29.5273   24.4231    4.6918 C.ar      12 UNK        -0.0824 
     13 C13        28.4570   23.7278    4.1253 C.ar      12 UNK        -0.0762 
     14 C14        28.6393   22.4011    3.7210 C.ar      12 UNK        -0.0782 
     15 C15        27.1166   24.4209    3.9247 C.3       12 UNK         0.0230 
     16 S16        27.1692   25.5855    2.5174 S.3       12 UNK        -0.2608 
     17 C17        27.7728   27.1264    3.2894 C.3       12 UNK        -0.0989 
     18 CA         29.2149   27.5023    2.8539 C.3       5 UNK         0.0716 
     19 N          29.2723   27.8152    1.4205 N.am      5 UNK        -0.4135 
     20 C          30.3810   28.0712    0.7110 C.2       4 UNK         0.5031 
     21 O          31.5204   28.0367    1.1760 O.2       4 UNK        -0.5229 
     22 CA         30.1691   28.4040   -0.7739 C.3       4 UNK         0.0329 
     23 CB         31.4864   28.4868   -1.5726 C.3       4 UNK        -0.2001 
     24 N          29.3050   27.3941   -1.3778 N.am      4 UNK        -0.4303 
     25 C          28.4060   27.6097   -2.3441 C.2       3 UNK         0.5044 
     26 O          28.1490   28.7232   -2.8029 O.2       3 UNK        -0.5152 
     27 CA         27.6677   26.3830   -2.8996 C.3       3 UNK         0.0319 
     28 CB         28.5186   25.6743   -3.9673 C.3       3 UNK        -0.2001 
     29 N          27.3124   25.4277   -1.8458 N.am      3 UNK        -0.4354 
     30 C          26.1076   24.8533   -1.7111 C.2       2 UNK         0.4964 
     31 O          25.1622   25.0768   -2.4696 O.2       2 UNK        -0.5047 
     32 CA         25.9008   23.8843   -0.5263 C.3       2 UNK         0.0288 
     33 CB         24.9029   22.7496   -0.8463 C.3       2 UNK        -0.2113 
     34 N          27.1472   23.3522    0.0394 N.am      2 UNK        -0.4145 
     35 C          28.0290   22.5324   -0.5521 C.2       1 UNK         0.5006 
     36 O          27.8877   22.0443   -1.6758 O.2       1 UNK        -0.5103 
     37 C          29.7512   28.6549    3.7333 C.2       5 UNK         0.5055 
     38 O          29.8886   29.7868    3.2628 O.2       5 UNK        -0.5220 
     39 N          29.9907   28.3610    5.0205 N.am      6 UNK        -0.4450 
     40 CA         30.5186   29.2889    6.0285 C.3       6 UNK         0.0367 
     41 CB         30.6258   28.5733    7.3841 C.3       6 UNK        -0.1929 
     42 C          29.7344   30.6044    6.1683 C.2       6 UNK         0.5070 
     43 O          30.3470   31.6657    6.2780 O.2       6 UNK        -0.5237 
     44 N          28.4001   30.5155    6.1109 N.am      7 UNK        -0.4739 
     45 CA         27.4950   31.6671    6.1536 C.3       7 UNK         0.0276 
     46 CB         26.0840   31.1742    6.5158 C.3       7 UNK        -0.1927 
     47 C          27.4577   32.4805    4.8448 C.2       7 UNK         0.5013 
     48 O          26.9910   33.6201    4.8700 O.2       7 UNK        -0.5193 
     49 N          27.9138   31.8878    3.7328 N.am      8 UNK        -0.4253 
     50 CA         27.8839   32.4851    2.3988 C.3       8 UNK         0.0242 
     51 CB         27.4445   31.4243    1.3734 C.3       8 UNK        -0.2000 
     52 C          29.2432   33.0789    2.0069 C.2       8 UNK         0.4948 
     53 O          29.2805   34.2081    1.5160 O.2       8 UNK        -0.5275 
     54 N          30.3258   32.3115    2.1968 N.am      9 UNK        -0.4246 
     55 CA         31.6577   32.6343    1.6780 C.3       9 UNK         0.0261 
     56 CB         31.7574   32.1751    0.2087 C.3       9 UNK        -0.1959 
     57 C          32.7972   32.0740    2.5471 C.2       9 UNK         0.5033 
     58 O          33.8737   31.7986    2.0164 O.2       9 UNK        -0.5390 
     59 N          32.5627   31.9175    3.8592 N.am      10 UNK        -0.4215 
     60 CA         33.5303   31.5204    4.9000 C.3       10 UNK         0.0240 
     61 CB         34.6777   32.5477    5.0076 C.3       10 UNK        -0.1982 
     62 C          34.0738   30.0755    4.8190 C.2       10 UNK         0.4970 
     63 O          34.8176   29.6787    5.7175 O.2       10 UNK        -0.4916 
     64 N          33.6648   29.3002    3.8067 N.am      11 UNK        -0.4279 
     65 CA         34.0582   27.9043    3.5633 C.3       11 UNK         0.1003 
     66 C          35.5748   27.7105    3.2547 C.2       11 UNK         0.5709 
     67 N          36.0695   26.4799    3.2767 N.am      11 UNK        -0.7358 
     68 O          36.3026   28.6533    2.9474 O.2       11 UNK        -0.4999 
     69 C69        33.4950   26.9333    4.6483 C.3       12 UNK        -0.0954 
     70 S70        32.8660   25.3898    3.9128 S.3       12 UNK        -0.2268 
     71 C71        31.9663   24.6459    5.3079 C.3       12 UNK         0.0203 
     72 H72        32.6393   24.9701   -0.9282 H         1 UNK         0.0888 
     73 H73        32.6400   23.3803   -1.6968 H         1 UNK         0.0888 
     74 H74        31.8397   24.7424   -2.4861 H         1 UNK         0.0888 
     75 H75        31.1768   21.9714   -0.7007 H         1 UNK         0.3017 
     76 H76        29.2793   22.8164    1.1679 H         1 UNK         0.0873 
     77 H77        28.4690   20.4273    1.1552 H         1 UNK         0.0745 
     78 H78        29.4304   20.1128   -0.2626 H         1 UNK         0.0745 
     79 H79        30.7867   19.8509    4.0329 H         1 UNK         0.0705 
     80 H80        29.1736   19.8011    3.3743 H         1 UNK         0.0705 
     81 H81        31.9444   22.0569    4.4317 H         1 UNK         0.1334 
     82 H82        29.3862   25.4390    5.0227 H         1 UNK         0.1417 
     83 H83        27.8132   21.8503    3.2921 H         1 UNK         0.1562 
     84 H84        26.8138   24.9335    4.8388 H         1 UNK         0.0748 
     85 H85        26.3387   23.6815    3.7278 H         1 UNK         0.0748 
     86 H86        27.6913   27.0250    4.3724 H         1 UNK         0.0940 
     87 H87        27.0794   27.9278    3.0255 H         1 UNK         0.0940 
     88 H88        29.8754   26.6479    3.0110 H         1 UNK         0.0703 
     89 H89        28.3850   27.8490    0.9423 H         1 UNK         0.3081 
     90 H90        29.6803   29.3801   -0.8061 H         1 UNK         0.0719 
     91 H91        32.0034   27.5267   -1.5870 H         1 UNK         0.0809 
     92 H92        31.3051   28.7848   -2.6052 H         1 UNK         0.0809 
     93 H93        32.1712   29.2167   -1.1414 H         1 UNK         0.0809 
     94 H94        29.4838   26.4398   -1.0590 H         1 UNK         0.2990 
     95 H95        26.7641   26.7600   -3.3834 H         1 UNK         0.0690 
     96 H96        29.4351   25.2614   -3.5444 H         1 UNK         0.0788 
     97 H97        28.8050   26.3645   -4.7620 H         1 UNK         0.0788 
     98 H98        27.9672   24.8559   -4.4307 H         1 UNK         0.0788 
     99 H99        28.0484   25.1783   -1.1934 H         1 UNK         0.2993 
    100 H100       25.4519   24.4894    0.2626 H         1 UNK         0.0949 
    101 H101       25.2302   22.1470   -1.6939 H         1 UNK         0.0767 
    102 H102       24.7699   22.0855    0.0077 H         1 UNK         0.0767 
    103 H103       23.9203   23.1514   -1.0967 H         1 UNK         0.0767 
    104 H104       27.3908   23.7365    0.9440 H         1 UNK         0.3013 
    105 H105       29.8362   27.4174    5.3380 H         1 UNK         0.3121 
    106 H106       31.5242   29.5546    5.7150 H         1 UNK         0.0774 
    107 H107       31.0300   29.2415    8.1461 H         1 UNK         0.0815 
    108 H108       29.6542   28.2268    7.7383 H         1 UNK         0.0815 
    109 H109       31.2919   27.7122    7.3301 H         1 UNK         0.0815 
    110 H110       27.9782   29.6028    6.0201 H         1 UNK         0.2987 
    111 H111       27.8336   32.3427    6.9426 H         1 UNK         0.0949 
    112 H112       25.3861   32.0093    6.5926 H         1 UNK         0.0806 
    113 H113       25.6895   30.4890    5.7644 H         1 UNK         0.0806 
    114 H114       26.0769   30.6609    7.4775 H         1 UNK         0.0806 
    115 H115       28.3590   30.9813    3.8111 H         1 UNK         0.3010 
    116 H116       27.1491   33.2929    2.3702 H         1 UNK         0.0829 
    117 H117       26.4531   31.0361    1.6070 H         1 UNK         0.0813 
    118 H118       27.3970   31.8494    0.3698 H         1 UNK         0.0813 
    119 H119       28.1331   30.5803    1.3354 H         1 UNK         0.0813 
    120 H120       30.2057   31.3782    2.5941 H         1 UNK         0.3038 
    121 H121       31.7922   33.7178    1.7012 H         1 UNK         0.0769 
    122 H122       32.7203   32.4409   -0.2294 H         1 UNK         0.0811 
    123 H123       30.9882   32.6380   -0.4093 H         1 UNK         0.0811 
    124 H124       31.6456   31.0946    0.1297 H         1 UNK         0.0811 
    125 H125       31.6392   32.1489    4.2036 H         1 UNK         0.3204 
    126 H126       32.9798   31.5681    5.8400 H         1 UNK         0.0748 
    127 H127       35.3072   32.3426    5.8745 H         1 UNK         0.0771 
    128 H128       35.3243   32.5295    4.1299 H         1 UNK         0.0771 
    129 H129       34.2939   33.5614    5.1222 H         1 UNK         0.0771 
    130 H130       33.0970   29.7200    3.0849 H         1 UNK         0.2980 
    131 H131       33.5744   27.6750    2.6158 H         1 UNK         0.0545 
    132 H132       37.0432   26.3333    3.0622 H         1 UNK         0.3459 
    133 H133       35.4743   25.6966    3.5000 H         1 UNK         0.3459 
    134 H134       34.2354   26.7074    5.4178 H         1 UNK         0.0616 
    135 H135       32.6600   27.3980    5.1711 H         1 UNK         0.0616 
    136 H136       32.6457   24.0135    5.8813 H         1 UNK         0.0634 
    137 H137       31.6154   25.4218    5.9895 H         1 UNK         0.0634 
@<TRIPOS>BOND
     1    1    2 1    
     2    1   72 1    
     3    1   73 1    
     4    1   74 1    
     5    2    3 2    
     6    2    4 am   BACKBONE|DICT|INTERRES
     7    4    5 1    
     8    4   75 1    
     9    5    6 1    
    10    5   35 1    
    11    5   76 1    
    12    6    7 1    
    13    6   77 1    
    14    6   78 1    
    15    7    8 1    
    16    8    9 1    
    17    8   79 1    
    18    8   80 1    
    19    9   10 ar   
    20    9   14 ar   
    21   10   11 ar   
    22   10   81 1    
    23   11   12 ar   
    24   11   71 1    
    25   12   13 ar   
    26   12   82 1    
    27   13   14 ar   
    28   13   15 1    
    29   14   83 1    
    30   15   16 1    
    31   15   84 1    
    32   15   85 1    
    33   16   17 1    
    34   17   18 1    
    35   17   86 1    
    36   17   87 1    
    37   18   19 1    
    38   18   37 1    
    39   18   88 1    
    40   19   20 am   BACKBONE|DICT|INTERRES
    41   19   89 1    
    42   20   21 2    
    43   20   22 1    
    44   22   23 1    
    45   22   24 1    
    46   22   90 1    
    47   23   91 1    
    48   23   92 1    
    49   23   93 1    
    50   24   25 am   BACKBONE|DICT|INTERRES
    51   24   94 1    
    52   25   26 2    
    53   25   27 1    
    54   27   28 1    
    55   27   29 1    
    56   27   95 1    
    57   28   96 1    
    58   28   97 1    
    59   28   98 1    
    60   29   30 am   BACKBONE|DICT|INTERRES
    61   29   99 1    
    62   30   31 2    
    63   30   32 1    
    64   32   33 1    
    65   32   34 1    
    66   32  100 1    
    67   33  101 1    
    68   33  102 1    
    69   33  103 1    
    70   34   35 am   BACKBONE|DICT|INTERRES
    71   34  104 1    
    72   35   36 2    
    73   37   38 2    
    74   37   39 am   BACKBONE|DICT|INTERRES
    75   39   40 1    
    76   39  105 1    
    77   40   41 1    
    78   40   42 1    
    79   40  106 1    
    80   41  107 1    
    81   41  108 1    
    82   41  109 1    
    83   42   43 2    
    84   42   44 am   BACKBONE|DICT|INTERRES
    85   44   45 1    
    86   44  110 1    
    87   45   46 1    
    88   45   47 1    
    89   45  111 1    
    90   46  112 1    
    91   46  113 1    
    92   46  114 1    
    93   47   48 2    
    94   47   49 am   BACKBONE|DICT|INTERRES
    95   49   50 1    
    96   49  115 1    
    97   50   51 1    
    98   50   52 1    
    99   50  116 1    
   100   51  117 1    
   101   51  118 1    
   102   51  119 1    
   103   52   53 2    
   104   52   54 am   BACKBONE|DICT|INTERRES
   105   54   55 1    
   106   54  120 1    
   107   55   56 1    
   108   55   57 1    
   109   55  121 1    
   110   56  122 1    
   111   56  123 1    
   112   56  124 1    
   113   57   58 2    
   114   57   59 am   BACKBONE|DICT|INTERRES
   115   59   60 1    
   116   59  125 1    
   117   60   61 1    
   118   60   62 1    
   119   60  126 1    
   120   61  127 1    
   121   61  128 1    
   122   61  129 1    
   123   62   63 2    
   124   62   64 am   BACKBONE|DICT|INTERRES
   125   64   65 1    
   126   64  130 1    
   127   65   66 1    
   128   65   69 1    
   129   65  131 1    
   130   66   67 am   BACKBONE|DICT|INTERRES
   131   66   68 2    
   132   67  132 1    
   133   67  133 1    
   134   69   70 1    
   135   69  134 1    
   136   69  135 1    
   137   70   71 1    
   138   71  136 1    
   139   71  137 1    
@<TRIPOS>SUBSTRUCTURE
     1 UNK         1 GROUP             0       ****    0 ROOT    
