@<TRIPOS>MOLECULE
3R136
137   139    1
SMALL
USER_CHARGES


@<TRIPOS>ATOM
      1 CA         30.3108   17.6696   -1.0439 C.3       0 UNK        -0.1979 
      2 C          29.8474   19.0760   -1.3947 C.2       0 UNK         0.4864 
      3 O          28.9670   19.2358   -2.2420 O.2       0 UNK        -0.5359 
      4 N          30.4386   20.0950   -0.7572 N.am      1 UNK        -0.4318 
      5 CA         30.0705   21.5046   -0.9152 C.3       1 UNK         0.0824 
      6 C6         31.2023   22.4294   -0.4011 C.3       12 UNK        -0.0944 
      7 S7         31.0099   24.1573   -0.9591 S.3       12 UNK        -0.2672 
      8 C8         31.9632   25.0607    0.3105 C.3       12 UNK         0.0333 
      9 C9         31.3964   25.0376    1.7337 C.ar      12 UNK        -0.0807 
     10 C10        32.2150   25.4829    2.7758 C.ar      12 UNK        -0.0894 
     11 C11        31.7691   25.4812    4.1032 C.ar      12 UNK        -0.0804 
     12 C12        30.4781   25.0265    4.3837 C.ar      12 UNK        -0.0824 
     13 C13        29.6411   24.5847    3.3562 C.ar      12 UNK        -0.0762 
     14 C14        30.1001   24.6018    2.0363 C.ar      12 UNK        -0.0782 
     15 C15        28.2411   24.0807    3.6685 C.3       12 UNK         0.0230 
     16 S16        26.9636   25.1791    2.9877 S.3       12 UNK        -0.2608 
     17 C17        27.1448   26.6794    4.0184 C.3       12 UNK        -0.0989 
     18 CA         28.0795   27.7750    3.4240 C.3       5 UNK         0.0716 
     19 N          27.9313   27.8833    1.9712 N.am      5 UNK        -0.4135 
     20 C          28.4798   28.7713    1.1320 C.2       4 UNK         0.5031 
     21 O          29.1829   29.7204    1.4806 O.2       4 UNK        -0.5229 
     22 CA         28.2317   28.5530   -0.3719 C.3       4 UNK         0.0329 
     23 CB         29.5232   28.0643   -1.0481 C.3       4 UNK        -0.2001 
     24 N          27.1587   27.5976   -0.6665 N.am      4 UNK        -0.4303 
     25 C          25.8512   27.7989   -0.4646 C.2       3 UNK         0.5044 
     26 O          25.3866   28.8575   -0.0422 O.2       3 UNK        -0.5152 
     27 CA         24.8958   26.6218   -0.7458 C.3       3 UNK         0.0319 
     28 CB         24.4079   26.6473   -2.2076 C.3       3 UNK        -0.2001 
     29 N          25.4006   25.2878   -0.3701 N.am      3 UNK        -0.4354 
     30 C          26.4127   24.5897   -0.9052 C.2       2 UNK         0.4964 
     31 O          27.1432   25.0134   -1.8053 O.2       2 UNK        -0.5047 
     32 CA         26.6485   23.1832   -0.3386 C.3       2 UNK         0.0288 
     33 CB         25.5372   22.2095   -0.7743 C.3       2 UNK        -0.2113 
     34 N          27.9401   22.7053   -0.8198 N.am      2 UNK        -0.4145 
     35 C          28.7183   21.7955   -0.2262 C.2       1 UNK         0.5006 
     36 O          28.4241   21.2206    0.8257 O.2       1 UNK        -0.5103 
     37 C          27.8431   29.1261    4.1293 C.2       5 UNK         0.5055 
     38 O          26.6980   29.5783    4.1922 O.2       5 UNK        -0.5220 
     39 N          28.9242   29.7715    4.5876 N.am      6 UNK        -0.4450 
     40 CA         29.0074   31.0968    5.2228 C.3       6 UNK         0.0367 
     41 CB         28.1766   31.1604    6.5190 C.3       6 UNK        -0.1929 
     42 C          28.6910   32.2873    4.2961 C.2       6 UNK         0.5070 
     43 O          29.2445   33.3665    4.5068 O.2       6 UNK        -0.5237 
     44 N          27.8334   32.0849    3.2886 N.am      7 UNK        -0.4739 
     45 CA         27.4613   33.0634    2.2654 C.3       7 UNK         0.0276 
     46 CB         26.2983   32.4994    1.4330 C.3       7 UNK        -0.1927 
     47 C          28.6318   33.4620    1.3506 C.2       7 UNK         0.5013 
     48 O          28.7041   34.6208    0.9390 O.2       7 UNK        -0.5193 
     49 N          29.5182   32.5034    1.0564 N.am      8 UNK        -0.4253 
     50 CA         30.7184   32.6913    0.2422 C.3       8 UNK         0.0242 
     51 CB         30.4563   32.1911   -1.1885 C.3       8 UNK        -0.2000 
     52 C          31.9416   31.9929    0.8528 C.2       8 UNK         0.4948 
     53 O          33.0394   32.5461    0.7740 O.2       8 UNK        -0.5275 
     54 N          31.7488   30.8071    1.4445 N.am      9 UNK        -0.4246 
     55 CA         32.7955   29.9929    2.0529 C.3       9 UNK         0.0261 
     56 CB         32.8467   28.6373    1.3315 C.3       9 UNK        -0.1959 
     57 C          32.4717   29.8189    3.5396 C.2       9 UNK         0.5033 
     58 O          31.5240   29.1066    3.8764 O.2       9 UNK        -0.5390 
     59 N          33.2430   30.4919    4.4012 N.am      10 UNK        -0.4215 
     60 CA         33.0863   30.4458    5.8589 C.3       10 UNK         0.0240 
     61 CB         33.4763   31.8123    6.4467 C.3       10 UNK        -0.1982 
     62 C          33.8923   29.3197    6.5299 C.2       10 UNK         0.4970 
     63 O          33.5927   28.9873    7.6768 O.2       10 UNK        -0.4916 
     64 N          34.8930   28.7659    5.8273 N.am      11 UNK        -0.4279 
     65 CA         35.8158   27.7177    6.3089 C.3       11 UNK         0.1003 
     66 C          36.7422   28.1579    7.4870 C.2       11 UNK         0.5709 
     67 N          36.9389   29.4497    7.7249 N.am      11 UNK        -0.7358 
     68 O          37.3239   27.3230    8.1764 O.2       11 UNK        -0.4999 
     69 C69        35.1086   26.3536    6.5695 C.3       12 UNK        -0.0954 
     70 S70        34.4144   25.6195    5.0523 S.3       12 UNK        -0.2268 
     71 C71        32.6419   26.0019    5.2432 C.3       12 UNK         0.0203 
     72 H72        30.6917   17.1672   -1.9327 H         1 UNK         0.0888 
     73 H73        31.1011   17.6757   -0.2934 H         1 UNK         0.0888 
     74 H74        29.4771   17.0869   -0.6532 H         1 UNK         0.0888 
     75 H75        31.1309   19.8994   -0.0484 H         1 UNK         0.3017 
     76 H76        29.9498   21.6838   -1.9864 H         1 UNK         0.0873 
     77 H77        31.2734   22.3855    0.6872 H         1 UNK         0.0745 
     78 H78        32.1658   22.0818   -0.7775 H         1 UNK         0.0745 
     79 H79        32.0473   26.0989   -0.0106 H         1 UNK         0.0705 
     80 H80        32.9781   24.6603    0.3205 H         1 UNK         0.0705 
     81 H81        33.2101   25.8361    2.5474 H         1 UNK         0.1334 
     82 H82        30.1203   25.0244    5.4043 H         1 UNK         0.1417 
     83 H83        29.4341   24.2716    1.2535 H         1 UNK         0.1562 
     84 H84        28.0897   23.9668    4.7430 H         1 UNK         0.0748 
     85 H85        28.1175   23.0870    3.2346 H         1 UNK         0.0748 
     86 H86        27.4841   26.3976    5.0167 H         1 UNK         0.0940 
     87 H87        26.1316   27.0646    4.1517 H         1 UNK         0.0940 
     88 H88        29.1135   27.4729    3.6008 H         1 UNK         0.0703 
     89 H89        27.3735   27.1499    1.5610 H         1 UNK         0.3081 
     90 H90        27.9584   29.5200   -0.7992 H         1 UNK         0.0719 
     91 H91        29.8106   27.0751   -0.6905 H         1 UNK         0.0809 
     92 H92        29.4076   28.0079   -2.1306 H         1 UNK         0.0809 
     93 H93        30.3581   28.7366   -0.8462 H         1 UNK         0.0809 
     94 H94        27.4284   26.7028   -1.0684 H         1 UNK         0.2990 
     95 H95        24.0218   26.7845   -0.1128 H         1 UNK         0.0690 
     96 H96        23.6701   25.8667   -2.3930 H         1 UNK         0.0788 
     97 H97        25.2261   26.5105   -2.9153 H         1 UNK         0.0788 
     98 H98        23.9352   27.6020   -2.4424 H         1 UNK         0.0788 
     99 H99        24.8947   24.8525    0.3896 H         1 UNK         0.2993 
    100 H100       26.6738   23.2489    0.7507 H         1 UNK         0.0949 
    101 H101       25.4791   22.1276   -1.8606 H         1 UNK         0.0767 
    102 H102       25.7063   21.2098   -0.3735 H         1 UNK         0.0767 
    103 H103       24.5600   22.5369   -0.4174 H         1 UNK         0.0767 
    104 H104       28.2804   23.2055   -1.6334 H         1 UNK         0.3013 
    105 H105       29.8363   29.3640    4.3689 H         1 UNK         0.3121 
    106 H106       30.0534   31.2151    5.5036 H         1 UNK         0.0774 
    107 H107       28.3448   32.1036    7.0404 H         1 UNK         0.0815 
    108 H108       27.1065   31.0880    6.3235 H         1 UNK         0.0815 
    109 H109       28.4492   30.3582    7.2045 H         1 UNK         0.0815 
    110 H110       27.3897   31.1736    3.2411 H         1 UNK         0.2987 
    111 H111       27.1182   33.9664    2.7749 H         1 UNK         0.0949 
    112 H112       25.9839   33.2105    0.6679 H         1 UNK         0.0806 
    113 H113       26.5755   31.5740    0.9252 H         1 UNK         0.0806 
    114 H114       25.4290   32.2898    2.0566 H         1 UNK         0.0806 
    115 H115       29.3515   31.5680    1.4199 H         1 UNK         0.3010 
    116 H116       30.9635   33.7546    0.1918 H         1 UNK         0.0829 
    117 H117       29.6572   32.7595   -1.6645 H         1 UNK         0.0813 
    118 H118       31.3460   32.2985   -1.8106 H         1 UNK         0.0813 
    119 H119       30.1710   31.1393   -1.2018 H         1 UNK         0.0813 
    120 H120       30.8113   30.4094    1.4934 H         1 UNK         0.3038 
    121 H121       33.7741   30.4666    1.9522 H         1 UNK         0.0769 
    122 H122       33.6279   28.0046    1.7526 H         1 UNK         0.0811 
    123 H123       33.0648   28.7609    0.2708 H         1 UNK         0.0811 
    124 H124       31.9001   28.1015    1.4171 H         1 UNK         0.0811 
    125 H125       33.9746   31.0880    4.0394 H         1 UNK         0.3204 
    126 H126       32.0393   30.2634    6.1056 H         1 UNK         0.0748 
    127 H127       33.3505   31.8231    7.5305 H         1 UNK         0.0771 
    128 H128       34.5165   32.0638    6.2365 H         1 UNK         0.0771 
    129 H129       32.8498   32.6084    6.0435 H         1 UNK         0.0771 
    130 H130       35.0695   29.1034    4.8937 H         1 UNK         0.2980 
    131 H131       36.5130   27.5569    5.4859 H         1 UNK         0.0545 
    132 H132       36.4864   30.1505    7.1614 H         1 UNK         0.3459 
    133 H133       37.5481   29.7235    8.4796 H         1 UNK         0.3459 
    134 H134       34.3342   26.4484    7.3317 H         1 UNK         0.0616 
    135 H135       35.8181   25.6214    6.9581 H         1 UNK         0.0616 
    136 H136       32.5117   27.0807    5.3089 H         1 UNK         0.0634 
    137 H137       32.3037   25.5872    6.1940 H         1 UNK         0.0634 
@<TRIPOS>BOND
     1    1    2 1    
     2    1   72 1    
     3    1   73 1    
     4    1   74 1    
     5    2    3 2    
     6    2    4 am   BACKBONE|DICT|INTERRES
     7    4    5 1    
     8    4   75 1    
     9    5    6 1    
    10    5   35 1    
    11    5   76 1    
    12    6    7 1    
    13    6   77 1    
    14    6   78 1    
    15    7    8 1    
    16    8    9 1    
    17    8   79 1    
    18    8   80 1    
    19    9   10 ar   
    20    9   14 ar   
    21   10   11 ar   
    22   10   81 1    
    23   11   12 ar   
    24   11   71 1    
    25   12   13 ar   
    26   12   82 1    
    27   13   14 ar   
    28   13   15 1    
    29   14   83 1    
    30   15   16 1    
    31   15   84 1    
    32   15   85 1    
    33   16   17 1    
    34   17   18 1    
    35   17   86 1    
    36   17   87 1    
    37   18   19 1    
    38   18   37 1    
    39   18   88 1    
    40   19   20 am   BACKBONE|DICT|INTERRES
    41   19   89 1    
    42   20   21 2    
    43   20   22 1    
    44   22   23 1    
    45   22   24 1    
    46   22   90 1    
    47   23   91 1    
    48   23   92 1    
    49   23   93 1    
    50   24   25 am   BACKBONE|DICT|INTERRES
    51   24   94 1    
    52   25   26 2    
    53   25   27 1    
    54   27   28 1    
    55   27   29 1    
    56   27   95 1    
    57   28   96 1    
    58   28   97 1    
    59   28   98 1    
    60   29   30 am   BACKBONE|DICT|INTERRES
    61   29   99 1    
    62   30   31 2    
    63   30   32 1    
    64   32   33 1    
    65   32   34 1    
    66   32  100 1    
    67   33  101 1    
    68   33  102 1    
    69   33  103 1    
    70   34   35 am   BACKBONE|DICT|INTERRES
    71   34  104 1    
    72   35   36 2    
    73   37   38 2    
    74   37   39 am   BACKBONE|DICT|INTERRES
    75   39   40 1    
    76   39  105 1    
    77   40   41 1    
    78   40   42 1    
    79   40  106 1    
    80   41  107 1    
    81   41  108 1    
    82   41  109 1    
    83   42   43 2    
    84   42   44 am   BACKBONE|DICT|INTERRES
    85   44   45 1    
    86   44  110 1    
    87   45   46 1    
    88   45   47 1    
    89   45  111 1    
    90   46  112 1    
    91   46  113 1    
    92   46  114 1    
    93   47   48 2    
    94   47   49 am   BACKBONE|DICT|INTERRES
    95   49   50 1    
    96   49  115 1    
    97   50   51 1    
    98   50   52 1    
    99   50  116 1    
   100   51  117 1    
   101   51  118 1    
   102   51  119 1    
   103   52   53 2    
   104   52   54 am   BACKBONE|DICT|INTERRES
   105   54   55 1    
   106   54  120 1    
   107   55   56 1    
   108   55   57 1    
   109   55  121 1    
   110   56  122 1    
   111   56  123 1    
   112   56  124 1    
   113   57   58 2    
   114   57   59 am   BACKBONE|DICT|INTERRES
   115   59   60 1    
   116   59  125 1    
   117   60   61 1    
   118   60   62 1    
   119   60  126 1    
   120   61  127 1    
   121   61  128 1    
   122   61  129 1    
   123   62   63 2    
   124   62   64 am   BACKBONE|DICT|INTERRES
   125   64   65 1    
   126   64  130 1    
   127   65   66 1    
   128   65   69 1    
   129   65  131 1    
   130   66   67 am   BACKBONE|DICT|INTERRES
   131   66   68 2    
   132   67  132 1    
   133   67  133 1    
   134   69   70 1    
   135   69  134 1    
   136   69  135 1    
   137   70   71 1    
   138   71  136 1    
   139   71  137 1    
@<TRIPOS>SUBSTRUCTURE
     1 UNK         1 GROUP             0       ****    0 ROOT    
