@<TRIPOS>MOLECULE
3R136
137   139    1
SMALL
USER_CHARGES


@<TRIPOS>ATOM
      1 CA         27.4556   23.4483   -2.4489 C.3       0 UNK        -0.1979 
      2 C          27.8552   23.7438   -1.0123 C.2       0 UNK         0.4864 
      3 O          27.4713   24.7868   -0.4801 O.2       0 UNK        -0.5359 
      4 N          28.6127   22.8328   -0.3847 N.am      1 UNK        -0.4318 
      5 CA         29.2096   22.9608    0.9545 C.3       1 UNK         0.0824 
      6 C6         30.0555   21.7164    1.3321 C.3       12 UNK        -0.0944 
      7 S7         31.3413   21.3096    0.1037 S.3       12 UNK        -0.2672 
      8 C8         32.8130   22.0725    0.8569 C.3       12 UNK         0.0333 
      9 C9         32.6948   23.5881    0.8875 C.ar      12 UNK        -0.0807 
     10 C10        32.4587   24.2596    2.0911 C.ar      12 UNK        -0.0894 
     11 C11        32.3272   25.6509    2.1091 C.ar      12 UNK        -0.0804 
     12 C12        32.4505   26.3693    0.9172 C.ar      12 UNK        -0.0824 
     13 C13        32.6591   25.7075   -0.2976 C.ar      12 UNK        -0.0762 
     14 C14        32.7945   24.3168   -0.3008 C.ar      12 UNK        -0.0782 
     15 C15        32.7324   26.4707   -1.6172 C.3       12 UNK         0.0230 
     16 S16        31.5069   27.8150   -1.7786 S.3       12 UNK        -0.2608 
     17 C17        29.9164   26.9605   -1.4870 C.3       12 UNK        -0.0989 
     18 CA         28.8669   27.9043   -0.8403 C.3       5 UNK         0.0716 
     19 N          27.5070   27.5532   -1.2568 N.am      5 UNK        -0.4135 
     20 C          26.5770   28.4456   -1.6229 C.2       4 UNK         0.5031 
     21 O          26.7644   29.6632   -1.6341 O.2       4 UNK        -0.5229 
     22 CA         25.1994   27.9125   -2.0600 C.3       4 UNK         0.0329 
     23 CB         25.1561   27.7533   -3.5887 C.3       4 UNK        -0.2001 
     24 N          24.7651   26.6567   -1.4391 N.am      4 UNK        -0.4303 
     25 C          24.6534   26.4256   -0.1244 C.2       3 UNK         0.5044 
     26 O          25.0394   27.2115    0.7405 O.2       3 UNK        -0.5152 
     27 CA         24.0060   25.1034    0.3103 C.3       3 UNK         0.0319 
     28 CB         23.4741   24.2285   -0.8453 C.3       3 UNK        -0.2001 
     29 N          24.9765   24.3459    1.0923 N.am      3 UNK        -0.4354 
     30 C          24.6957   23.6372    2.1941 C.2       2 UNK         0.4964 
     31 O          23.5663   23.5592    2.6805 O.2       2 UNK        -0.5047 
     32 CA         25.8545   22.8706    2.8604 C.3       2 UNK         0.0288 
     33 CB         25.4083   21.4845    3.3634 C.3       2 UNK        -0.2113 
     34 N          26.9797   22.6944    1.9402 N.am      2 UNK        -0.4145 
     35 C          28.1941   23.2406    2.0810 C.2       1 UNK         0.5006 
     36 O          28.5336   23.9306    3.0426 O.2       1 UNK        -0.5103 
     37 C          29.0025   27.9832    0.6969 C.2       5 UNK         0.5055 
     38 O          30.0171   28.4866    1.1766 O.2       5 UNK        -0.5220 
     39 N          27.9868   27.5505    1.4640 N.am      6 UNK        -0.4450 
     40 CA         28.0017   27.5464    2.9362 C.3       6 UNK         0.0367 
     41 CB         26.7409   26.8444    3.4623 C.3       6 UNK        -0.1929 
     42 C          28.1288   28.9437    3.5751 C.2       6 UNK         0.5070 
     43 O          28.5327   29.0468    4.7329 O.2       6 UNK        -0.5237 
     44 N          27.7906   29.9893    2.8098 N.am      7 UNK        -0.4739 
     45 CA         27.9223   31.3971    3.1824 C.3       7 UNK         0.0276 
     46 CB         26.9980   32.2271    2.2747 C.3       7 UNK        -0.1927 
     47 C          29.3672   31.9357    3.1236 C.2       7 UNK         0.5013 
     48 O          29.5773   33.0783    3.5349 O.2       7 UNK        -0.5193 
     49 N          30.3270   31.1537    2.6002 N.am      8 UNK        -0.4253 
     50 CA         31.7413   31.5280    2.4923 C.3       8 UNK         0.0242 
     51 CB         32.5136   30.4266    1.7470 C.3       8 UNK        -0.2000 
     52 C          32.3799   31.7844    3.8677 C.2       8 UNK         0.4948 
     53 O          32.3261   30.9103    4.7351 O.2       8 UNK        -0.5275 
     54 N          33.0029   32.9613    4.0280 N.am      9 UNK        -0.4246 
     55 CA         33.6205   33.4299    5.2760 C.3       9 UNK         0.0261 
     56 CB         34.1283   34.8684    5.0864 C.3       9 UNK        -0.1959 
     57 C          34.7489   32.5269    5.8041 C.2       9 UNK         0.5033 
     58 O          34.9341   32.4412    7.0190 O.2       9 UNK        -0.5390 
     59 N          35.4471   31.8344    4.8928 N.am      10 UNK        -0.4215 
     60 CA         36.4725   30.8311    5.1940 C.3       10 UNK         0.0240 
     61 CB         37.1239   30.3680    3.8805 C.3       10 UNK        -0.1982 
     62 C          35.9480   29.6186    5.9882 C.2       10 UNK         0.4970 
     63 O          36.7352   28.9855    6.6929 O.2       10 UNK        -0.4916 
     64 N          34.6456   29.3270    5.8742 N.am      11 UNK        -0.4279 
     65 CA         33.9493   28.2818    6.6367 C.3       11 UNK         0.1003 
     66 C          33.3845   28.7834    7.9986 C.2       11 UNK         0.5709 
     67 N          33.5597   30.0440    8.3824 N.am      11 UNK        -0.7358 
     68 O          32.7903   28.0038    8.7398 O.2       11 UNK        -0.4999 
     69 C69        32.8590   27.5871    5.7790 C.3       12 UNK        -0.0954 
     70 S70        33.5544   26.7979    4.2906 S.3       12 UNK        -0.2268 
     71 C71        32.0257   26.3767    3.4097 C.3       12 UNK         0.0203 
     72 H72        27.7026   24.2960   -3.0873 H         1 UNK         0.0888 
     73 H73        26.3830   23.2729   -2.5140 H         1 UNK         0.0888 
     74 H74        27.9685   22.5703   -2.8409 H         1 UNK         0.0888 
     75 H75        28.8946   22.0033   -0.8885 H         1 UNK         0.3017 
     76 H76        29.8674   23.8308    0.9135 H         1 UNK         0.0873 
     77 H77        30.5291   21.8535    2.3064 H         1 UNK         0.0745 
     78 H78        29.4138   20.8389    1.4345 H         1 UNK         0.0745 
     79 H79        32.9629   21.6690    1.8597 H         1 UNK         0.0705 
     80 H80        33.6939   21.7903    0.2786 H         1 UNK         0.0705 
     81 H81        32.3639   23.7015    3.0125 H         1 UNK         0.1334 
     82 H82        32.3526   27.4455    0.9314 H         1 UNK         0.1417 
     83 H83        32.9592   23.7917   -1.2322 H         1 UNK         0.1562 
     84 H84        32.5985   25.7902   -2.4596 H         1 UNK         0.0748 
     85 H85        33.7318   26.8953   -1.7189 H         1 UNK         0.0748 
     86 H86        30.0544   26.0580   -0.8892 H         1 UNK         0.0940 
     87 H87        29.5669   26.6159   -2.4616 H         1 UNK         0.0940 
     88 H88        29.0781   28.9137   -1.1998 H         1 UNK         0.0703 
     89 H89        27.2696   26.5659   -1.2046 H         1 UNK         0.3081 
     90 H90        24.4661   28.6713   -1.7790 H         1 UNK         0.0719 
     91 H91        25.8346   26.9711   -3.9317 H         1 UNK         0.0809 
     92 H92        24.1528   27.5055   -3.9357 H         1 UNK         0.0809 
     93 H93        25.4477   28.6790   -4.0874 H         1 UNK         0.0809 
     94 H94        24.4393   25.9384   -2.0691 H         1 UNK         0.2990 
     95 H95        23.1597   25.3831    0.9413 H         1 UNK         0.0690 
     96 H96        22.9796   23.3368   -0.4593 H         1 UNK         0.0788 
     97 H97        24.2717   23.8960   -1.5095 H         1 UNK         0.0788 
     98 H98        22.7346   24.7636   -1.4427 H         1 UNK         0.0788 
     99 H99        25.9390   24.4200    0.7759 H         1 UNK         0.2993 
    100 H100       26.1593   23.4620    3.7264 H         1 UNK         0.0949 
    101 H101       24.6147   21.5707    4.1069 H         1 UNK         0.0767 
    102 H102       25.0301   20.8632    2.5506 H         1 UNK         0.0767 
    103 H103       26.2334   20.9518    3.8367 H         1 UNK         0.0767 
    104 H104       26.7980   22.1484    1.1095 H         1 UNK         0.3013 
    105 H105       27.1379   27.2182    1.0201 H         1 UNK         0.3121 
    106 H106       28.8706   26.9632    3.2482 H         1 UNK         0.0774 
    107 H107       25.8397   27.4224    3.2556 H         1 UNK         0.0815 
    108 H108       26.7967   26.7035    4.5424 H         1 UNK         0.0815 
    109 H109       26.6192   25.8609    3.0135 H         1 UNK         0.0815 
    110 H110       27.4674   29.7970    1.8725 H         1 UNK         0.2987 
    111 H111       27.5825   31.5122    4.2141 H         1 UNK         0.0949 
    112 H112       27.2884   32.1514    1.2260 H         1 UNK         0.0806 
    113 H113       25.9607   31.9029    2.3608 H         1 UNK         0.0806 
    114 H114       27.0267   33.2837    2.5452 H         1 UNK         0.0806 
    115 H115       30.0823   30.2221    2.2797 H         1 UNK         0.3010 
    116 H116       31.7924   32.4427    1.8983 H         1 UNK         0.0829 
    117 H117       32.1041   30.2557    0.7510 H         1 UNK         0.0813 
    118 H118       33.5634   30.6951    1.6242 H         1 UNK         0.0813 
    119 H119       32.4805   29.4801    2.2886 H         1 UNK         0.0813 
    120 H120       32.9967   33.6172    3.2596 H         1 UNK         0.3038 
    121 H121       32.8379   33.4423    6.0376 H         1 UNK         0.0769 
    122 H122       34.8908   34.9297    4.3088 H         1 UNK         0.0811 
    123 H123       34.5713   35.2503    6.0075 H         1 UNK         0.0811 
    124 H124       33.3167   35.5445    4.8168 H         1 UNK         0.0811 
    125 H125       35.2203   31.9748    3.9192 H         1 UNK         0.3204 
    126 H126       37.2366   31.3145    5.8063 H         1 UNK         0.0748 
    127 H127       37.9151   29.6417    4.0722 H         1 UNK         0.0771 
    128 H128       36.4000   29.8926    3.2169 H         1 UNK         0.0771 
    129 H129       37.5766   31.2024    3.3444 H         1 UNK         0.0771 
    130 H130       34.0442   29.9175    5.3103 H         1 UNK         0.2980 
    131 H131       34.6747   27.5108    6.9026 H         1 UNK         0.0545 
    132 H132       33.1909   30.3389    9.2722 H         1 UNK         0.3459 
    133 H133       34.0596   30.7068    7.8023 H         1 UNK         0.3459 
    134 H134       32.3484   26.8125    6.3541 H         1 UNK         0.0616 
    135 H135       32.0937   28.3049    5.4781 H         1 UNK         0.0616 
    136 H136       31.3956   25.7546    4.0474 H         1 UNK         0.0634 
    137 H137       31.4604   27.2888    3.2118 H         1 UNK         0.0634 
@<TRIPOS>BOND
     1    1    2 1    
     2    1   72 1    
     3    1   73 1    
     4    1   74 1    
     5    2    3 2    
     6    2    4 am   BACKBONE|DICT|INTERRES
     7    4    5 1    
     8    4   75 1    
     9    5    6 1    
    10    5   35 1    
    11    5   76 1    
    12    6    7 1    
    13    6   77 1    
    14    6   78 1    
    15    7    8 1    
    16    8    9 1    
    17    8   79 1    
    18    8   80 1    
    19    9   10 ar   
    20    9   14 ar   
    21   10   11 ar   
    22   10   81 1    
    23   11   12 ar   
    24   11   71 1    
    25   12   13 ar   
    26   12   82 1    
    27   13   14 ar   
    28   13   15 1    
    29   14   83 1    
    30   15   16 1    
    31   15   84 1    
    32   15   85 1    
    33   16   17 1    
    34   17   18 1    
    35   17   86 1    
    36   17   87 1    
    37   18   19 1    
    38   18   37 1    
    39   18   88 1    
    40   19   20 am   BACKBONE|DICT|INTERRES
    41   19   89 1    
    42   20   21 2    
    43   20   22 1    
    44   22   23 1    
    45   22   24 1    
    46   22   90 1    
    47   23   91 1    
    48   23   92 1    
    49   23   93 1    
    50   24   25 am   BACKBONE|DICT|INTERRES
    51   24   94 1    
    52   25   26 2    
    53   25   27 1    
    54   27   28 1    
    55   27   29 1    
    56   27   95 1    
    57   28   96 1    
    58   28   97 1    
    59   28   98 1    
    60   29   30 am   BACKBONE|DICT|INTERRES
    61   29   99 1    
    62   30   31 2    
    63   30   32 1    
    64   32   33 1    
    65   32   34 1    
    66   32  100 1    
    67   33  101 1    
    68   33  102 1    
    69   33  103 1    
    70   34   35 am   BACKBONE|DICT|INTERRES
    71   34  104 1    
    72   35   36 2    
    73   37   38 2    
    74   37   39 am   BACKBONE|DICT|INTERRES
    75   39   40 1    
    76   39  105 1    
    77   40   41 1    
    78   40   42 1    
    79   40  106 1    
    80   41  107 1    
    81   41  108 1    
    82   41  109 1    
    83   42   43 2    
    84   42   44 am   BACKBONE|DICT|INTERRES
    85   44   45 1    
    86   44  110 1    
    87   45   46 1    
    88   45   47 1    
    89   45  111 1    
    90   46  112 1    
    91   46  113 1    
    92   46  114 1    
    93   47   48 2    
    94   47   49 am   BACKBONE|DICT|INTERRES
    95   49   50 1    
    96   49  115 1    
    97   50   51 1    
    98   50   52 1    
    99   50  116 1    
   100   51  117 1    
   101   51  118 1    
   102   51  119 1    
   103   52   53 2    
   104   52   54 am   BACKBONE|DICT|INTERRES
   105   54   55 1    
   106   54  120 1    
   107   55   56 1    
   108   55   57 1    
   109   55  121 1    
   110   56  122 1    
   111   56  123 1    
   112   56  124 1    
   113   57   58 2    
   114   57   59 am   BACKBONE|DICT|INTERRES
   115   59   60 1    
   116   59  125 1    
   117   60   61 1    
   118   60   62 1    
   119   60  126 1    
   120   61  127 1    
   121   61  128 1    
   122   61  129 1    
   123   62   63 2    
   124   62   64 am   BACKBONE|DICT|INTERRES
   125   64   65 1    
   126   64  130 1    
   127   65   66 1    
   128   65   69 1    
   129   65  131 1    
   130   66   67 am   BACKBONE|DICT|INTERRES
   131   66   68 2    
   132   67  132 1    
   133   67  133 1    
   134   69   70 1    
   135   69  134 1    
   136   69  135 1    
   137   70   71 1    
   138   71  136 1    
   139   71  137 1    
@<TRIPOS>SUBSTRUCTURE
     1 UNK         1 GROUP             0       ****    0 ROOT    
