@<TRIPOS>MOLECULE
3R136
137   139    1
SMALL
USER_CHARGES


@<TRIPOS>ATOM
      1 CA         26.9646   26.5631    5.7688 C.3       0 UNK        -0.1979 
      2 C          26.7201   25.5430    4.6680 C.2       0 UNK         0.4864 
      3 O          25.7306   24.8100    4.7202 O.2       0 UNK        -0.5359 
      4 N          27.6087   25.4888    3.6670 N.am      1 UNK        -0.4318 
      5 CA         27.5388   24.5870    2.5121 C.3       1 UNK         0.0824 
      6 C6         28.9192   24.4443    1.8247 C.3       12 UNK        -0.0944 
      7 S7         30.1759   23.7366    2.9416 S.3       12 UNK        -0.2672 
      8 C8         31.5956   23.5639    1.8158 C.3       12 UNK         0.0333 
      9 C9         32.1043   24.9138    1.3301 C.ar      12 UNK        -0.0807 
     10 C10        32.9273   25.6917    2.1489 C.ar      12 UNK        -0.0894 
     11 C11        33.3978   26.9323    1.7079 C.ar      12 UNK        -0.0804 
     12 C12        33.0365   27.3929    0.4375 C.ar      12 UNK        -0.0824 
     13 C13        32.2135   26.6235   -0.3924 C.ar      12 UNK        -0.0762 
     14 C14        31.7563   25.3819    0.0599 C.ar      12 UNK        -0.0782 
     15 C15        31.8328   27.1033   -1.7892 C.3       12 UNK         0.0230 
     16 S16        31.2503   28.8316   -1.8610 S.3       12 UNK        -0.2608 
     17 C17        29.8995   28.8904   -0.6352 C.3       12 UNK        -0.0989 
     18 CA         28.4951   28.7799   -1.2826 C.3       5 UNK         0.0716 
     19 N          28.2351   27.4177   -1.7610 N.am      5 UNK        -0.4135 
     20 C          27.2275   27.0466   -2.5615 C.2       4 UNK         0.5031 
     21 O          26.3200   27.7993   -2.9167 O.2       4 UNK        -0.5229 
     22 CA         27.2457   25.6013   -3.0833 C.3       4 UNK         0.0329 
     23 CB         28.6302   24.9214   -3.0361 C.3       4 UNK        -0.2001 
     24 N          26.2899   24.7995   -2.3279 N.am      4 UNK        -0.4303 
     25 C          25.4579   23.8916   -2.8575 C.2       3 UNK         0.5044 
     26 O          25.3939   23.6474   -4.0635 O.2       3 UNK        -0.5152 
     27 CA         24.5541   23.0921   -1.8955 C.3       3 UNK         0.0319 
     28 CB         25.0482   21.6403   -1.7794 C.3       3 UNK        -0.2001 
     29 N          24.4648   23.6661   -0.5516 N.am      3 UNK        -0.4354 
     30 C          23.8178   24.7976   -0.2432 C.2       2 UNK         0.4964 
     31 O          23.1388   25.4370   -1.0466 O.2       2 UNK        -0.5047 
     32 CA         23.9700   25.3235    1.1951 C.3       2 UNK         0.0288 
     33 CB         22.7355   24.9567    2.0339 C.3       2 UNK        -0.2113 
     34 N          25.1776   24.8786    1.9066 N.am      2 UNK        -0.4145 
     35 C          26.4503   25.0582    1.5241 C.2       1 UNK         0.5006 
     36 O          26.7703   25.6016    0.4633 O.2       1 UNK        -0.5103 
     37 C          27.4338   29.3282   -0.3059 C.2       5 UNK         0.5055 
     38 O          27.2990   30.5496   -0.2170 O.2       5 UNK        -0.5220 
     39 N          26.7505   28.4464    0.4421 N.am      6 UNK        -0.4450 
     40 CA         25.8846   28.7664    1.5893 C.3       6 UNK         0.0367 
     41 CB         24.6177   29.5287    1.1482 C.3       6 UNK        -0.1929 
     42 C          26.6521   29.4584    2.7350 C.2       6 UNK         0.5070 
     43 O          26.1039   30.3135    3.4314 O.2       6 UNK        -0.5237 
     44 N          27.9143   29.0557    2.9069 N.am      7 UNK        -0.4739 
     45 CA         28.8571   29.5189    3.9167 C.3       7 UNK         0.0276 
     46 CB         29.6286   30.7368    3.3770 C.3       7 UNK        -0.1927 
     47 C          29.8048   28.3573    4.2371 C.2       7 UNK         0.5013 
     48 O          29.8054   27.3570    3.5144 O.2       7 UNK        -0.5193 
     49 N          30.5751   28.4998    5.3166 N.am      8 UNK        -0.4253 
     50 CA         31.5823   27.5532    5.7860 C.3       8 UNK         0.0242 
     51 CB         30.9154   26.3158    6.4199 C.3       8 UNK        -0.2000 
     52 C          32.4793   28.2822    6.7942 C.2       8 UNK         0.4948 
     53 O          32.1231   29.3764    7.2447 O.2       8 UNK        -0.5275 
     54 N          33.6221   27.6669    7.1291 N.am      9 UNK        -0.4246 
     55 CA         34.6656   28.1200    8.0636 C.3       9 UNK         0.0261 
     56 CB         34.1229   28.2783    9.4984 C.3       9 UNK        -0.1959 
     57 C          35.4154   29.3818    7.6009 C.2       9 UNK         0.5033 
     58 O          36.6340   29.3311    7.4272 O.2       9 UNK        -0.5390 
     59 N          34.6840   30.4757    7.3582 N.am      10 UNK        -0.4215 
     60 CA         35.1783   31.7454    6.8163 C.3       10 UNK         0.0240 
     61 CB         34.2203   32.8733    7.2435 C.3       10 UNK        -0.1982 
     62 C          35.3621   31.6656    5.2869 C.2       10 UNK         0.4970 
     63 O          34.7865   32.4655    4.5467 O.2       10 UNK        -0.4916 
     64 N          36.1270   30.6630    4.8461 N.am      11 UNK        -0.4279 
     65 CA         36.3964   30.3398    3.4421 C.3       11 UNK         0.1003 
     66 C          37.4337   31.2878    2.7783 C.2       11 UNK         0.5709 
     67 N          37.5358   31.2582    1.4568 N.am      11 UNK        -0.7358 
     68 O          38.1590   32.0285    3.4408 O.2       11 UNK        -0.4999 
     69 C69        36.7726   28.8365    3.3017 C.3       12 UNK        -0.0954 
     70 S70        35.9380   28.0317    1.8982 S.3       12 UNK        -0.2268 
     71 C71        34.2802   27.7808    2.6106 C.3       12 UNK         0.0203 
     72 H72        26.5437   26.2137    6.7113 H         1 UNK         0.0888 
     73 H73        28.0280   26.7333    5.9240 H         1 UNK         0.0888 
     74 H74        26.4935   27.5123    5.5150 H         1 UNK         0.0888 
     75 H75        28.4222   26.1016    3.6763 H         1 UNK         0.3017 
     76 H76        27.2438   23.5966    2.8660 H         1 UNK         0.0873 
     77 H77        29.2715   25.4174    1.4771 H         1 UNK         0.0745 
     78 H78        28.8464   23.8035    0.9436 H         1 UNK         0.0745 
     79 H79        31.3151   22.9290    0.9739 H         1 UNK         0.0705 
     80 H80        32.3971   23.0395    2.3381 H         1 UNK         0.0705 
     81 H81        33.1926   25.3299    3.1327 H         1 UNK         0.1334 
     82 H82        33.4009   28.3514    0.0936 H         1 UNK         0.1417 
     83 H83        31.1275   24.7738   -0.5757 H         1 UNK         0.1562 
     84 H84        31.0656   26.4628   -2.2214 H         1 UNK         0.0748 
     85 H85        32.7054   27.0068   -2.4363 H         1 UNK         0.0748 
     86 H86        30.0128   29.8471   -0.1200 H         1 UNK         0.0940 
     87 H87        30.0375   28.1301    0.1357 H         1 UNK         0.0940 
     88 H88        28.4682   29.4366   -2.1553 H         1 UNK         0.0703 
     89 H89        28.9165   26.7211   -1.5050 H         1 UNK         0.3081 
     90 H90        26.9383   25.6591   -4.1298 H         1 UNK         0.0719 
     91 H91        28.5958   23.9431   -3.5162 H         1 UNK         0.0809 
     92 H92        29.3746   25.5089   -3.5744 H         1 UNK         0.0809 
     93 H93        28.9820   24.7682   -2.0154 H         1 UNK         0.0809 
     94 H94        26.2643   24.9741   -1.3275 H         1 UNK         0.2990 
     95 H95        23.5515   23.0785   -2.3283 H         1 UNK         0.0690 
     96 H96        26.0490   21.5876   -1.3485 H         1 UNK         0.0788 
     97 H97        25.0904   21.1620   -2.7590 H         1 UNK         0.0788 
     98 H98        24.3814   21.0416   -1.1585 H         1 UNK         0.0788 
     99 H99        24.9820   23.1982    0.1780 H         1 UNK         0.2993 
    100 H100       24.0126   26.4102    1.1185 H         1 UNK         0.0949 
    101 H101       22.6496   23.8782    2.1732 H         1 UNK         0.0767 
    102 H102       22.7739   25.4208    3.0198 H         1 UNK         0.0767 
    103 H103       21.8178   25.2985    1.5527 H         1 UNK         0.0767 
    104 H104       25.0370   24.5100    2.8427 H         1 UNK         0.3013 
    105 H105       26.9055   27.4538    0.2780 H         1 UNK         0.3121 
    106 H106       25.5612   27.8153    2.0078 H         1 UNK         0.0774 
    107 H107       24.8492   30.5356    0.8001 H         1 UNK         0.0815 
    108 H108       23.9144   29.6272    1.9758 H         1 UNK         0.0815 
    109 H109       24.1006   29.0058    0.3438 H         1 UNK         0.0815 
    110 H110       28.2751   28.3025    2.3354 H         1 UNK         0.2987 
    111 H111       28.3179   29.7892    4.8275 H         1 UNK         0.0949 
    112 H112       30.2042   30.4848    2.4853 H         1 UNK         0.0806 
    113 H113       28.9512   31.5504    3.1166 H         1 UNK         0.0806 
    114 H114       30.3274   31.1244    4.1193 H         1 UNK         0.0806 
    115 H115       30.5486   29.3557    5.8597 H         1 UNK         0.3010 
    116 H116       32.1956   27.2452    4.9368 H         1 UNK         0.0829 
    117 H117       31.6584   25.6222    6.8146 H         1 UNK         0.0813 
    118 H118       30.2571   26.5923    7.2442 H         1 UNK         0.0813 
    119 H119       30.3268   25.7613    5.6887 H         1 UNK         0.0813 
    120 H120       33.8187   26.7809    6.6836 H         1 UNK         0.3038 
    121 H121       35.4030   27.3158    8.0892 H         1 UNK         0.0769 
    122 H122       33.3743   29.0672    9.5746 H         1 UNK         0.0811 
    123 H123       34.9269   28.5296   10.1914 H         1 UNK         0.0811 
    124 H124       33.6688   27.3529    9.8528 H         1 UNK         0.0811 
    125 H125       33.6740   30.3705    7.4404 H         1 UNK         0.3204 
    126 H126       36.1584   31.9574    7.2491 H         1 UNK         0.0748 
    127 H127       34.1420   32.9360    8.3290 H         1 UNK         0.0771 
    128 H128       34.5730   33.8429    6.8892 H         1 UNK         0.0771 
    129 H129       33.2165   32.7228    6.8436 H         1 UNK         0.0771 
    130 H130       36.5806   30.0806    5.5413 H         1 UNK         0.2980 
    131 H131       35.4573   30.5174    2.9146 H         1 UNK         0.0545 
    132 H132       38.2068   31.8566    1.0012 H         1 UNK         0.3459 
    133 H133       36.9650   30.6325    0.9094 H         1 UNK         0.3459 
    134 H134       37.8503   28.6989    3.1933 H         1 UNK         0.0616 
    135 H135       36.5064   28.2753    4.1994 H         1 UNK         0.0616 
    136 H136       34.3814   27.3150    3.5919 H         1 UNK         0.0634 
    137 H137       33.8005   28.7468    2.7734 H         1 UNK         0.0634 
@<TRIPOS>BOND
     1    1    2 1    
     2    1   72 1    
     3    1   73 1    
     4    1   74 1    
     5    2    3 2    
     6    2    4 am   BACKBONE|DICT|INTERRES
     7    4    5 1    
     8    4   75 1    
     9    5    6 1    
    10    5   35 1    
    11    5   76 1    
    12    6    7 1    
    13    6   77 1    
    14    6   78 1    
    15    7    8 1    
    16    8    9 1    
    17    8   79 1    
    18    8   80 1    
    19    9   10 ar   
    20    9   14 ar   
    21   10   11 ar   
    22   10   81 1    
    23   11   12 ar   
    24   11   71 1    
    25   12   13 ar   
    26   12   82 1    
    27   13   14 ar   
    28   13   15 1    
    29   14   83 1    
    30   15   16 1    
    31   15   84 1    
    32   15   85 1    
    33   16   17 1    
    34   17   18 1    
    35   17   86 1    
    36   17   87 1    
    37   18   19 1    
    38   18   37 1    
    39   18   88 1    
    40   19   20 am   BACKBONE|DICT|INTERRES
    41   19   89 1    
    42   20   21 2    
    43   20   22 1    
    44   22   23 1    
    45   22   24 1    
    46   22   90 1    
    47   23   91 1    
    48   23   92 1    
    49   23   93 1    
    50   24   25 am   BACKBONE|DICT|INTERRES
    51   24   94 1    
    52   25   26 2    
    53   25   27 1    
    54   27   28 1    
    55   27   29 1    
    56   27   95 1    
    57   28   96 1    
    58   28   97 1    
    59   28   98 1    
    60   29   30 am   BACKBONE|DICT|INTERRES
    61   29   99 1    
    62   30   31 2    
    63   30   32 1    
    64   32   33 1    
    65   32   34 1    
    66   32  100 1    
    67   33  101 1    
    68   33  102 1    
    69   33  103 1    
    70   34   35 am   BACKBONE|DICT|INTERRES
    71   34  104 1    
    72   35   36 2    
    73   37   38 2    
    74   37   39 am   BACKBONE|DICT|INTERRES
    75   39   40 1    
    76   39  105 1    
    77   40   41 1    
    78   40   42 1    
    79   40  106 1    
    80   41  107 1    
    81   41  108 1    
    82   41  109 1    
    83   42   43 2    
    84   42   44 am   BACKBONE|DICT|INTERRES
    85   44   45 1    
    86   44  110 1    
    87   45   46 1    
    88   45   47 1    
    89   45  111 1    
    90   46  112 1    
    91   46  113 1    
    92   46  114 1    
    93   47   48 2    
    94   47   49 am   BACKBONE|DICT|INTERRES
    95   49   50 1    
    96   49  115 1    
    97   50   51 1    
    98   50   52 1    
    99   50  116 1    
   100   51  117 1    
   101   51  118 1    
   102   51  119 1    
   103   52   53 2    
   104   52   54 am   BACKBONE|DICT|INTERRES
   105   54   55 1    
   106   54  120 1    
   107   55   56 1    
   108   55   57 1    
   109   55  121 1    
   110   56  122 1    
   111   56  123 1    
   112   56  124 1    
   113   57   58 2    
   114   57   59 am   BACKBONE|DICT|INTERRES
   115   59   60 1    
   116   59  125 1    
   117   60   61 1    
   118   60   62 1    
   119   60  126 1    
   120   61  127 1    
   121   61  128 1    
   122   61  129 1    
   123   62   63 2    
   124   62   64 am   BACKBONE|DICT|INTERRES
   125   64   65 1    
   126   64  130 1    
   127   65   66 1    
   128   65   69 1    
   129   65  131 1    
   130   66   67 am   BACKBONE|DICT|INTERRES
   131   66   68 2    
   132   67  132 1    
   133   67  133 1    
   134   69   70 1    
   135   69  134 1    
   136   69  135 1    
   137   70   71 1    
   138   71  136 1    
   139   71  137 1    
@<TRIPOS>SUBSTRUCTURE
     1 UNK         1 GROUP             0       ****    0 ROOT    
