@<TRIPOS>MOLECULE
3R136
137   139    1
SMALL
USER_CHARGES


@<TRIPOS>ATOM
      1 CA         26.8114   17.9728    0.7946 C.3       0 UNK        -0.1979 
      2 C          28.0471   18.7590    0.3827 C.2       0 UNK         0.4864 
      3 O          28.7956   18.3116   -0.4870 O.2       0 UNK        -0.5359 
      4 N          28.2651   19.9291    0.9980 N.am      1 UNK        -0.4318 
      5 CA         29.4007   20.8214    0.7302 C.3       1 UNK         0.0824 
      6 C6         29.6573   21.7895    1.9134 C.3       12 UNK        -0.0944 
      7 S7         28.2334   22.8721    2.3088 S.3       12 UNK        -0.2672 
      8 C8         28.5407   23.2694    4.0642 C.3       12 UNK         0.0333 
      9 C9         29.2252   24.6176    4.2854 C.ar      12 UNK        -0.0807 
     10 C10        30.3096   25.0288    3.5002 C.ar      12 UNK        -0.0894 
     11 C11        30.9311   26.2593    3.7293 C.ar      12 UNK        -0.0804 
     12 C12        30.4827   27.0692    4.7750 C.ar      12 UNK        -0.0824 
     13 C13        29.4025   26.6774    5.5691 C.ar      12 UNK        -0.0762 
     14 C14        28.7785   25.4513    5.3174 C.ar      12 UNK        -0.0782 
     15 C15        28.9078   27.5796    6.6947 C.3       12 UNK         0.0230 
     16 S16        28.3096   29.1957    6.0932 S.3       12 UNK        -0.2608 
     17 C17        27.0222   28.6939    4.9009 C.3       12 UNK        -0.0989 
     18 CA         27.5576   28.6795    3.4381 C.3       5 UNK         0.0716 
     19 N          27.1863   27.4679    2.7032 N.am      5 UNK        -0.4135 
     20 C          25.9499   27.0690    2.3783 C.2       4 UNK         0.5031 
     21 O          24.9279   27.6533    2.7415 O.2       4 UNK        -0.5229 
     22 CA         25.8445   25.8241    1.4693 C.3       4 UNK         0.0329 
     23 CB         24.5651   25.8425    0.6073 C.3       4 UNK        -0.2001 
     24 N          27.0171   25.5864    0.6104 N.am      4 UNK        -0.4303 
     25 C          27.5790   26.4408   -0.2612 C.2       3 UNK         0.5044 
     26 O          27.2383   27.6165   -0.3862 O.2       3 UNK        -0.5152 
     27 CA         28.7404   25.9068   -1.1160 C.3       3 UNK         0.0319 
     28 CB         30.0787   26.1446   -0.3982 C.3       3 UNK        -0.2001 
     29 N          28.6149   24.4855   -1.4481 N.am      3 UNK        -0.4354 
     30 C          27.6615   23.9439   -2.2188 C.2       2 UNK         0.4964 
     31 O          26.7913   24.6035   -2.7874 O.2       2 UNK        -0.5047 
     32 CA         27.6478   22.4096   -2.3711 C.3       2 UNK         0.0288 
     33 CB         28.4342   21.9665   -3.6210 C.3       2 UNK        -0.2113 
     34 N          28.0684   21.6677   -1.1706 N.am      2 UNK        -0.4145 
     35 C          29.2826   21.5965   -0.6007 C.2       1 UNK         0.5006 
     36 O          30.2803   22.1634   -1.0492 O.2       1 UNK        -0.5103 
     37 C          27.2912   29.9965    2.6676 C.2       5 UNK         0.5055 
     38 O          27.4195   31.0710    3.2565 O.2       5 UNK        -0.5220 
     39 N          26.9943   29.9283    1.3579 N.am      6 UNK        -0.4450 
     40 CA         26.8503   31.1029    0.4861 C.3       6 UNK         0.0367 
     41 CB         26.1573   30.6976   -0.8241 C.3       6 UNK        -0.1929 
     42 C          28.2006   31.7840    0.1980 C.2       6 UNK         0.5070 
     43 O          28.2371   32.9881   -0.0518 O.2       6 UNK        -0.5237 
     44 N          29.2880   31.0065    0.2880 N.am      7 UNK        -0.4739 
     45 CA         30.6792   31.4621    0.2306 C.3       7 UNK         0.0276 
     46 CB         31.5366   30.3103   -0.3241 C.3       7 UNK        -0.1927 
     47 C          31.2123   31.9496    1.5971 C.2       7 UNK         0.5013 
     48 O          32.4170   32.1860    1.7135 O.2       7 UNK        -0.5193 
     49 N          30.3221   32.0682    2.5975 N.am      8 UNK        -0.4253 
     50 CA         30.5619   32.3728    4.0136 C.3       8 UNK         0.0242 
     51 CB         31.3017   33.7179    4.1834 C.3       8 UNK        -0.2000 
     52 C          31.2769   31.2263    4.7491 C.2       8 UNK         0.4948 
     53 O          31.7197   30.2609    4.1256 O.2       8 UNK        -0.5275 
     54 N          31.3988   31.3585    6.0776 N.am      9 UNK        -0.4246 
     55 CA         32.0462   30.3802    6.9635 C.3       9 UNK         0.0261 
     56 CB         31.8283   30.7998    8.4259 C.3       9 UNK        -0.1959 
     57 C          33.5450   30.1576    6.6785 C.2       9 UNK         0.5033 
     58 O          34.0781   29.1079    7.0391 O.2       9 UNK        -0.5390 
     59 N          34.1898   31.1354    6.0274 N.am      10 UNK        -0.4215 
     60 CA         35.5554   31.0431    5.5092 C.3       10 UNK         0.0240 
     61 CB         36.0835   32.4642    5.2499 C.3       10 UNK        -0.1982 
     62 C          35.6689   30.1888    4.2301 C.2       10 UNK         0.4970 
     63 O          36.7831   29.7886    3.8902 O.2       10 UNK        -0.4916 
     64 N          34.5419   29.9378    3.5472 N.am      11 UNK        -0.4279 
     65 CA         34.4271   29.1932    2.2851 C.3       11 UNK         0.1003 
     66 C          35.2316   29.8469    1.1260 C.2       11 UNK         0.5709 
     67 N          34.9943   31.1226    0.8487 N.am      11 UNK        -0.7358 
     68 O          36.0636   29.2149    0.4783 O.2       11 UNK        -0.4999 
     69 C69        34.6774   27.6646    2.4423 C.3       12 UNK        -0.0954 
     70 S70        33.6325   26.8914    3.7239 S.3       12 UNK        -0.2268 
     71 C71        32.0581   26.7388    2.8267 C.3       12 UNK         0.0203 
     72 H72        27.1001   16.9943    1.1774 H         1 UNK         0.0888 
     73 H73        26.2415   18.4849    1.5697 H         1 UNK         0.0888 
     74 H74        26.1577   17.8234   -0.0644 H         1 UNK         0.0888 
     75 H75        27.6223   20.2506    1.7090 H         1 UNK         0.3017 
     76 H76        30.2901   20.1950    0.6302 H         1 UNK         0.0873 
     77 H77        30.5350   22.4056    1.7134 H         1 UNK         0.0745 
     78 H78        29.9106   21.2013    2.7965 H         1 UNK         0.0745 
     79 H79        29.1343   22.4865    4.5368 H         1 UNK         0.0705 
     80 H80        27.5738   23.2582    4.5695 H         1 UNK         0.0705 
     81 H81        30.6685   24.3983    2.7016 H         1 UNK         0.1334 
     82 H82        30.9645   28.0185    4.9572 H         1 UNK         0.1417 
     83 H83        27.9445   25.1419    5.9329 H         1 UNK         0.1562 
     84 H84        29.7218   27.7456    7.4014 H         1 UNK         0.0748 
     85 H85        28.1082   27.0966    7.2583 H         1 UNK         0.0748 
     86 H86        26.1593   29.3543    5.0067 H         1 UNK         0.0940 
     87 H87        26.6584   27.7078    5.1934 H         1 UNK         0.0940 
     88 H88        28.6456   28.6253    3.4720 H         1 UNK         0.0703 
     89 H89        27.9577   26.9042    2.3766 H         1 UNK         0.3081 
     90 H90        25.7804   24.9676    2.1421 H         1 UNK         0.0719 
     91 H91        24.4904   24.9473   -0.0103 H         1 UNK         0.0809 
     92 H92        23.6695   25.8803    1.2288 H         1 UNK         0.0809 
     93 H93        24.5401   26.7086   -0.0552 H         1 UNK         0.0809 
     94 H94        27.4138   24.6578    0.6717 H         1 UNK         0.2990 
     95 H95        28.7454   26.4705   -2.0513 H         1 UNK         0.0690 
     96 H96        30.9220   25.8634   -1.0292 H         1 UNK         0.0788 
     97 H97        30.1460   25.5692    0.5253 H         1 UNK         0.0788 
     98 H98        30.2055   27.1970   -0.1404 H         1 UNK         0.0788 
     99 H99        29.3267   23.8578   -1.0873 H         1 UNK         0.2993 
    100 H100       26.6045   22.1316   -2.5310 H         1 UNK         0.0949 
    101 H101       28.3814   20.8866   -3.7600 H         1 UNK         0.0767 
    102 H102       28.0254   22.4297   -4.5200 H         1 UNK         0.0767 
    103 H103       29.4863   22.2471   -3.5652 H         1 UNK         0.0767 
    104 H104       27.3216   21.1908   -0.6852 H         1 UNK         0.3013 
    105 H105       26.9364   29.0209    0.9009 H         1 UNK         0.3121 
    106 H106       26.2136   31.8296    0.9956 H         1 UNK         0.0774 
    107 H107       25.9562   31.5730   -1.4430 H         1 UNK         0.0815 
    108 H108       26.7726   30.0184   -1.4152 H         1 UNK         0.0815 
    109 H109       25.2024   30.2071   -0.6348 H         1 UNK         0.0815 
    110 H110       29.1448   30.0265    0.4837 H         1 UNK         0.2987 
    111 H111       30.7503   32.3053   -0.4599 H         1 UNK         0.0949 
    112 H112       31.5593   29.4594    0.3572 H         1 UNK         0.0806 
    113 H113       31.1586   29.9607   -1.2851 H         1 UNK         0.0806 
    114 H114       32.5657   30.6306   -0.4865 H         1 UNK         0.0806 
    115 H115       29.3638   31.8197    2.3886 H         1 UNK         0.3010 
    116 H116       29.5734   32.4677    4.4660 H         1 UNK         0.0829 
    117 H117       31.2986   34.0450    5.2234 H         1 UNK         0.0813 
    118 H118       32.3438   33.6555    3.8684 H         1 UNK         0.0813 
    119 H119       30.8250   34.5065    3.6010 H         1 UNK         0.0813 
    120 H120       30.9989   32.1718    6.5235 H         1 UNK         0.3038 
    121 H121       31.5489   29.4210    6.8095 H         1 UNK         0.0769 
    122 H122       32.2768   31.7708    8.6394 H         1 UNK         0.0811 
    123 H123       32.2751   30.0768    9.1100 H         1 UNK         0.0811 
    124 H124       30.7668   30.8566    8.6680 H         1 UNK         0.0811 
    125 H125       33.6699   31.9679    5.7924 H         1 UNK         0.3204 
    126 H126       36.1839   30.5769    6.2711 H         1 UNK         0.0748 
    127 H127       37.1156   32.4389    4.8972 H         1 UNK         0.0771 
    128 H128       35.4938   32.9824    4.4922 H         1 UNK         0.0771 
    129 H129       36.0691   33.0661    6.1589 H         1 UNK         0.0771 
    130 H130       33.6541   30.2718    3.9080 H         1 UNK         0.2980 
    131 H131       33.3860   29.3092    1.9872 H         1 UNK         0.0545 
    132 H132       35.5069   31.5726    0.1078 H         1 UNK         0.3459 
    133 H133       34.2421   31.6167    1.3205 H         1 UNK         0.3459 
    134 H134       34.5012   27.1488    1.4967 H         1 UNK         0.0616 
    135 H135       35.7205   27.4765    2.7007 H         1 UNK         0.0616 
    136 H136       32.1963   26.0639    1.9808 H         1 UNK         0.0634 
    137 H137       31.7770   27.7072    2.4121 H         1 UNK         0.0634 
@<TRIPOS>BOND
     1    1    2 1    
     2    1   72 1    
     3    1   73 1    
     4    1   74 1    
     5    2    3 2    
     6    2    4 am   BACKBONE|DICT|INTERRES
     7    4    5 1    
     8    4   75 1    
     9    5    6 1    
    10    5   35 1    
    11    5   76 1    
    12    6    7 1    
    13    6   77 1    
    14    6   78 1    
    15    7    8 1    
    16    8    9 1    
    17    8   79 1    
    18    8   80 1    
    19    9   10 ar   
    20    9   14 ar   
    21   10   11 ar   
    22   10   81 1    
    23   11   12 ar   
    24   11   71 1    
    25   12   13 ar   
    26   12   82 1    
    27   13   14 ar   
    28   13   15 1    
    29   14   83 1    
    30   15   16 1    
    31   15   84 1    
    32   15   85 1    
    33   16   17 1    
    34   17   18 1    
    35   17   86 1    
    36   17   87 1    
    37   18   19 1    
    38   18   37 1    
    39   18   88 1    
    40   19   20 am   BACKBONE|DICT|INTERRES
    41   19   89 1    
    42   20   21 2    
    43   20   22 1    
    44   22   23 1    
    45   22   24 1    
    46   22   90 1    
    47   23   91 1    
    48   23   92 1    
    49   23   93 1    
    50   24   25 am   BACKBONE|DICT|INTERRES
    51   24   94 1    
    52   25   26 2    
    53   25   27 1    
    54   27   28 1    
    55   27   29 1    
    56   27   95 1    
    57   28   96 1    
    58   28   97 1    
    59   28   98 1    
    60   29   30 am   BACKBONE|DICT|INTERRES
    61   29   99 1    
    62   30   31 2    
    63   30   32 1    
    64   32   33 1    
    65   32   34 1    
    66   32  100 1    
    67   33  101 1    
    68   33  102 1    
    69   33  103 1    
    70   34   35 am   BACKBONE|DICT|INTERRES
    71   34  104 1    
    72   35   36 2    
    73   37   38 2    
    74   37   39 am   BACKBONE|DICT|INTERRES
    75   39   40 1    
    76   39  105 1    
    77   40   41 1    
    78   40   42 1    
    79   40  106 1    
    80   41  107 1    
    81   41  108 1    
    82   41  109 1    
    83   42   43 2    
    84   42   44 am   BACKBONE|DICT|INTERRES
    85   44   45 1    
    86   44  110 1    
    87   45   46 1    
    88   45   47 1    
    89   45  111 1    
    90   46  112 1    
    91   46  113 1    
    92   46  114 1    
    93   47   48 2    
    94   47   49 am   BACKBONE|DICT|INTERRES
    95   49   50 1    
    96   49  115 1    
    97   50   51 1    
    98   50   52 1    
    99   50  116 1    
   100   51  117 1    
   101   51  118 1    
   102   51  119 1    
   103   52   53 2    
   104   52   54 am   BACKBONE|DICT|INTERRES
   105   54   55 1    
   106   54  120 1    
   107   55   56 1    
   108   55   57 1    
   109   55  121 1    
   110   56  122 1    
   111   56  123 1    
   112   56  124 1    
   113   57   58 2    
   114   57   59 am   BACKBONE|DICT|INTERRES
   115   59   60 1    
   116   59  125 1    
   117   60   61 1    
   118   60   62 1    
   119   60  126 1    
   120   61  127 1    
   121   61  128 1    
   122   61  129 1    
   123   62   63 2    
   124   62   64 am   BACKBONE|DICT|INTERRES
   125   64   65 1    
   126   64  130 1    
   127   65   66 1    
   128   65   69 1    
   129   65  131 1    
   130   66   67 am   BACKBONE|DICT|INTERRES
   131   66   68 2    
   132   67  132 1    
   133   67  133 1    
   134   69   70 1    
   135   69  134 1    
   136   69  135 1    
   137   70   71 1    
   138   71  136 1    
   139   71  137 1    
@<TRIPOS>SUBSTRUCTURE
     1 UNK         1 GROUP             0       ****    0 ROOT    
