@<TRIPOS>MOLECULE
3R136
137   139    1
SMALL
USER_CHARGES


@<TRIPOS>ATOM
      1 CA         28.3112   21.8469   -0.8916 C.3       0 UNK        -0.1979 
      2 C          28.2215   23.2844   -1.3768 C.2       0 UNK         0.4864 
      3 O          27.3693   23.5979   -2.2099 O.2       0 UNK        -0.5359 
      4 N          29.0955   24.1628   -0.8657 N.am      1 UNK        -0.4318 
      5 CA         29.1540   25.5895   -1.2111 C.3       1 UNK         0.0824 
      6 C6         30.3764   26.2980   -0.5831 C.3       12 UNK        -0.0944 
      7 S7         31.9309   25.5378   -1.1669 S.3       12 UNK        -0.2672 
      8 C8         33.0883   25.8896    0.1950 C.3       12 UNK         0.0333 
      9 C9         32.6367   25.3276    1.5377 C.ar      12 UNK        -0.0807 
     10 C10        32.5747   26.1675    2.6529 C.ar      12 UNK        -0.0894 
     11 C11        32.1938   25.6698    3.9008 C.ar      12 UNK        -0.0804 
     12 C12        31.8596   24.3200    4.0274 C.ar      12 UNK        -0.0824 
     13 C13        31.8737   23.4770    2.9118 C.ar      12 UNK        -0.0762 
     14 C14        32.2876   23.9794    1.6743 C.ar      12 UNK        -0.0782 
     15 C15        31.4098   22.0330    3.0393 C.3       12 UNK         0.0230 
     16 S16        29.6803   21.8302    2.4915 S.3       12 UNK        -0.2608 
     17 C17        28.7865   22.9287    3.6427 C.3       12 UNK        -0.0989 
     18 CA         28.3907   24.2728    2.9537 C.3       5 UNK         0.0716 
     19 N          27.0459   24.2719    2.3643 N.am      5 UNK        -0.4135 
     20 C          25.8860   24.1615    3.0314 C.2       4 UNK         0.5031 
     21 O          25.8030   23.8281    4.2141 O.2       4 UNK        -0.5229 
     22 CA         24.5885   24.5148    2.2878 C.3       4 UNK         0.0329 
     23 CB         24.0640   25.8824    2.7611 C.3       4 UNK        -0.2001 
     24 N          24.7370   24.5551    0.8309 N.am      4 UNK        -0.4303 
     25 C          23.8906   23.9838   -0.0386 C.2       3 UNK         0.5044 
     26 O          22.9514   23.2619    0.3016 O.2       3 UNK        -0.5152 
     27 CA         24.1198   24.2556   -1.5419 C.3       3 UNK         0.0319 
     28 CB         22.7987   24.3616   -2.3336 C.3       3 UNK        -0.2001 
     29 N          24.9930   25.4058   -1.8118 N.am      3 UNK        -0.4354 
     30 C          24.7732   26.6978   -1.5089 C.2       2 UNK         0.4964 
     31 O          23.7132   27.1177   -1.0433 O.2       2 UNK        -0.5047 
     32 CA         25.9439   27.6832   -1.7331 C.3       2 UNK         0.0288 
     33 CB         25.9488   28.8315   -0.7014 C.3       2 UNK        -0.2113 
     34 N          27.2669   27.0415   -1.7882 N.am      2 UNK        -0.4145 
     35 C          27.8381   26.2935   -0.8315 C.2       1 UNK         0.5006 
     36 O          27.3350   26.0797    0.2764 O.2       1 UNK        -0.5103 
     37 C          28.5484   25.5325    3.8343 C.2       5 UNK         0.5055 
     38 O          28.7888   25.4377    5.0397 O.2       5 UNK        -0.5220 
     39 N          28.3574   26.6992    3.2051 N.am      6 UNK        -0.4450 
     40 CA         28.3846   28.0184    3.8280 C.3       6 UNK         0.0367 
     41 CB         27.0409   28.2744    4.5426 C.3       6 UNK        -0.1929 
     42 C          28.6613   29.0817    2.7546 C.2       6 UNK         0.5070 
     43 O          28.7672   28.7492    1.5721 O.2       6 UNK        -0.5237 
     44 N          28.7379   30.3447    3.1974 N.am      7 UNK        -0.4739 
     45 CA         28.8705   31.5678    2.3935 C.3       7 UNK         0.0276 
     46 CB         27.6076   31.7944    1.5351 C.3       7 UNK        -0.1927 
     47 C          30.1749   31.6528    1.5753 C.2       7 UNK         0.5013 
     48 O          30.1754   32.2160    0.4782 O.2       7 UNK        -0.5193 
     49 N          31.2673   31.1249    2.1367 N.am      8 UNK        -0.4253 
     50 CA         32.6283   31.2659    1.6249 C.3       8 UNK         0.0242 
     51 CB         33.3006   29.8831    1.6526 C.3       8 UNK        -0.2000 
     52 C          33.4005   32.2598    2.5050 C.2       8 UNK         0.4948 
     53 O          32.9369   32.6235    3.5885 O.2       8 UNK        -0.5275 
     54 N          34.5967   32.6544    2.0501 N.am      9 UNK        -0.4246 
     55 CA         35.5192   33.5033    2.8144 C.3       9 UNK         0.0261 
     56 CB         36.6698   33.9609    1.9031 C.3       9 UNK        -0.1959 
     57 C          36.0710   32.8137    4.0777 C.2       9 UNK         0.5033 
     58 O          36.3475   33.4941    5.0666 O.2       9 UNK        -0.5390 
     59 N          36.2191   31.4828    4.0204 N.am      10 UNK        -0.4215 
     60 CA         36.7066   30.6502    5.1202 C.3       10 UNK         0.0240 
     61 CB         37.2665   29.3385    4.5441 C.3       10 UNK        -0.1982 
     62 C          35.6371   30.3432    6.1830 C.2       10 UNK         0.4970 
     63 O          36.0003   30.1365    7.3419 O.2       10 UNK        -0.4916 
     64 N          34.3604   30.2862    5.7838 N.am      11 UNK        -0.4279 
     65 CA         33.2429   29.8333    6.6213 C.3       11 UNK         0.1003 
     66 C          31.8795   30.2147    5.9937 C.2       11 UNK         0.5709 
     67 N          30.9305   30.6645    6.8036 N.am      11 UNK        -0.7358 
     68 O          31.6571   30.0671    4.7942 O.2       11 UNK        -0.4999 
     69 C69        33.3164   28.3177    6.9846 C.3       12 UNK        -0.0954 
     70 S70        33.7444   27.2002    5.6009 S.3       12 UNK        -0.2268 
     71 C71        32.1045   26.6017    5.0989 C.3       12 UNK         0.0203 
     72 H72        28.0844   21.1574   -1.7043 H         1 UNK         0.0888 
     73 H73        29.3089   21.6113   -0.5221 H         1 UNK         0.0888 
     74 H74        27.5957   21.6766   -0.0875 H         1 UNK         0.0888 
     75 H75        29.7830   23.8496   -0.1966 H         1 UNK         0.3017 
     76 H76        29.2614   25.6421   -2.2969 H         1 UNK         0.0873 
     77 H77        30.3938   27.3562   -0.8519 H         1 UNK         0.0745 
     78 H78        30.3199   26.2610    0.5061 H         1 UNK         0.0745 
     79 H79        33.2348   26.9686    0.2521 H         1 UNK         0.0705 
     80 H80        34.0605   25.4619   -0.0532 H         1 UNK         0.0705 
     81 H81        32.8312   27.2122    2.5595 H         1 UNK         0.1334 
     82 H82        31.5493   23.9360    4.9895 H         1 UNK         0.1417 
     83 H83        32.3173   23.3266    0.8124 H         1 UNK         0.1562 
     84 H84        31.5071   21.6857    4.0692 H         1 UNK         0.0748 
     85 H85        32.0506   21.3861    2.4383 H         1 UNK         0.0748 
     86 H86        29.4094   23.0771    4.5242 H         1 UNK         0.0940 
     87 H87        27.9135   22.3921    4.0133 H         1 UNK         0.0940 
     88 H88        29.0787   24.4433    2.1241 H         1 UNK         0.0703 
     89 H89        27.0132   24.6475    1.4227 H         1 UNK         0.3081 
     90 H90        23.8605   23.7521    2.5720 H         1 UNK         0.0719 
     91 H91        23.9393   25.9053    3.8447 H         1 UNK         0.0809 
     92 H92        24.7479   26.6885    2.4919 H         1 UNK         0.0809 
     93 H93        23.0934   26.1076    2.3186 H         1 UNK         0.0809 
     94 H94        25.4713   25.1488    0.4627 H         1 UNK         0.2990 
     95 H95        24.6541   23.3828   -1.9194 H         1 UNK         0.0690 
     96 H96        22.1606   25.1606   -1.9552 H         1 UNK         0.0788 
     97 H97        22.2277   23.4346   -2.2682 H         1 UNK         0.0788 
     98 H98        22.9837   24.5510   -3.3909 H         1 UNK         0.0788 
     99 H99        25.9072   25.1488   -2.1699 H         1 UNK         0.2993 
    100 H100       25.7750   28.1236   -2.7169 H         1 UNK         0.0949 
    101 H101       26.0601   28.4620    0.3188 H         1 UNK         0.0767 
    102 H102       26.7664   29.5250   -0.8953 H         1 UNK         0.0767 
    103 H103       25.0224   29.4055   -0.7416 H         1 UNK         0.0767 
    104 H104       27.7501   27.1332   -2.6716 H         1 UNK         0.3013 
    105 H105       28.1924   26.7208    2.2020 H         1 UNK         0.3121 
    106 H106       29.1987   28.0559    4.5541 H         1 UNK         0.0774 
    107 H107       27.0443   29.2259    5.0748 H         1 UNK         0.0815 
    108 H108       26.2111   28.2983    3.8353 H         1 UNK         0.0815 
    109 H109       26.8263   27.5011    5.2803 H         1 UNK         0.0815 
    110 H110       28.6709   30.4949    4.1937 H         1 UNK         0.2987 
    111 H111       28.9255   32.3903    3.1084 H         1 UNK         0.0949 
    112 H112       26.7014   31.7498    2.1390 H         1 UNK         0.0806 
    113 H113       27.6283   32.7739    1.0559 H         1 UNK         0.0806 
    114 H114       27.5221   31.0491    0.7453 H         1 UNK         0.0806 
    115 H115       31.1998   30.7434    3.0779 H         1 UNK         0.3010 
    116 H116       32.6215   31.6398    0.5989 H         1 UNK         0.0829 
    117 H117       32.7173   29.1610    1.0817 H         1 UNK         0.0813 
    118 H118       34.2970   29.9128    1.2108 H         1 UNK         0.0813 
    119 H119       33.4012   29.5035    2.6703 H         1 UNK         0.0813 
    120 H120       34.9112   32.3348    1.1445 H         1 UNK         0.3038 
    121 H121       34.9698   34.3897    3.1396 H         1 UNK         0.0769 
    122 H122       36.2985   34.5236    1.0464 H         1 UNK         0.0811 
    123 H123       37.3575   34.6138    2.4428 H         1 UNK         0.0811 
    124 H124       37.2501   33.1175    1.5267 H         1 UNK         0.0811 
    125 H125       35.9871   31.0131    3.1581 H         1 UNK         0.3204 
    126 H126       37.5241   31.1764    5.6182 H         1 UNK         0.0748 
    127 H127       38.0766   29.5268    3.8393 H         1 UNK         0.0771 
    128 H128       37.6693   28.7057    5.3364 H         1 UNK         0.0771 
    129 H129       36.4973   28.7612    4.0287 H         1 UNK         0.0771 
    130 H130       34.1102   30.5192    4.8335 H         1 UNK         0.2980 
    131 H131       33.3171   30.3932    7.5560 H         1 UNK         0.0545 
    132 H132       31.0981   30.7737    7.7916 H         1 UNK         0.3459 
    133 H133       30.0347   30.9165    6.4217 H         1 UNK         0.3459 
    134 H134       34.0852   28.1756    7.7450 H         1 UNK         0.0616 
    135 H135       32.3908   27.9817    7.4560 H         1 UNK         0.0616 
    136 H136       31.4703   27.4473    4.8381 H         1 UNK         0.0634 
    137 H137       31.6271   26.1039    5.9444 H         1 UNK         0.0634 
@<TRIPOS>BOND
     1    1    2 1    
     2    1   72 1    
     3    1   73 1    
     4    1   74 1    
     5    2    3 2    
     6    2    4 am   BACKBONE|DICT|INTERRES
     7    4    5 1    
     8    4   75 1    
     9    5    6 1    
    10    5   35 1    
    11    5   76 1    
    12    6    7 1    
    13    6   77 1    
    14    6   78 1    
    15    7    8 1    
    16    8    9 1    
    17    8   79 1    
    18    8   80 1    
    19    9   10 ar   
    20    9   14 ar   
    21   10   11 ar   
    22   10   81 1    
    23   11   12 ar   
    24   11   71 1    
    25   12   13 ar   
    26   12   82 1    
    27   13   14 ar   
    28   13   15 1    
    29   14   83 1    
    30   15   16 1    
    31   15   84 1    
    32   15   85 1    
    33   16   17 1    
    34   17   18 1    
    35   17   86 1    
    36   17   87 1    
    37   18   19 1    
    38   18   37 1    
    39   18   88 1    
    40   19   20 am   BACKBONE|DICT|INTERRES
    41   19   89 1    
    42   20   21 2    
    43   20   22 1    
    44   22   23 1    
    45   22   24 1    
    46   22   90 1    
    47   23   91 1    
    48   23   92 1    
    49   23   93 1    
    50   24   25 am   BACKBONE|DICT|INTERRES
    51   24   94 1    
    52   25   26 2    
    53   25   27 1    
    54   27   28 1    
    55   27   29 1    
    56   27   95 1    
    57   28   96 1    
    58   28   97 1    
    59   28   98 1    
    60   29   30 am   BACKBONE|DICT|INTERRES
    61   29   99 1    
    62   30   31 2    
    63   30   32 1    
    64   32   33 1    
    65   32   34 1    
    66   32  100 1    
    67   33  101 1    
    68   33  102 1    
    69   33  103 1    
    70   34   35 am   BACKBONE|DICT|INTERRES
    71   34  104 1    
    72   35   36 2    
    73   37   38 2    
    74   37   39 am   BACKBONE|DICT|INTERRES
    75   39   40 1    
    76   39  105 1    
    77   40   41 1    
    78   40   42 1    
    79   40  106 1    
    80   41  107 1    
    81   41  108 1    
    82   41  109 1    
    83   42   43 2    
    84   42   44 am   BACKBONE|DICT|INTERRES
    85   44   45 1    
    86   44  110 1    
    87   45   46 1    
    88   45   47 1    
    89   45  111 1    
    90   46  112 1    
    91   46  113 1    
    92   46  114 1    
    93   47   48 2    
    94   47   49 am   BACKBONE|DICT|INTERRES
    95   49   50 1    
    96   49  115 1    
    97   50   51 1    
    98   50   52 1    
    99   50  116 1    
   100   51  117 1    
   101   51  118 1    
   102   51  119 1    
   103   52   53 2    
   104   52   54 am   BACKBONE|DICT|INTERRES
   105   54   55 1    
   106   54  120 1    
   107   55   56 1    
   108   55   57 1    
   109   55  121 1    
   110   56  122 1    
   111   56  123 1    
   112   56  124 1    
   113   57   58 2    
   114   57   59 am   BACKBONE|DICT|INTERRES
   115   59   60 1    
   116   59  125 1    
   117   60   61 1    
   118   60   62 1    
   119   60  126 1    
   120   61  127 1    
   121   61  128 1    
   122   61  129 1    
   123   62   63 2    
   124   62   64 am   BACKBONE|DICT|INTERRES
   125   64   65 1    
   126   64  130 1    
   127   65   66 1    
   128   65   69 1    
   129   65  131 1    
   130   66   67 am   BACKBONE|DICT|INTERRES
   131   66   68 2    
   132   67  132 1    
   133   67  133 1    
   134   69   70 1    
   135   69  134 1    
   136   69  135 1    
   137   70   71 1    
   138   71  136 1    
   139   71  137 1    
@<TRIPOS>SUBSTRUCTURE
     1 UNK         1 GROUP             0       ****    0 ROOT    
