@<TRIPOS>MOLECULE
3R136
137   139    1
SMALL
USER_CHARGES


@<TRIPOS>ATOM
      1 CA         26.1818   19.5278    1.2634 C.3       0 UNK        -0.1979 
      2 C          26.6790   20.8754    0.7616 C.2       0 UNK         0.4864 
      3 O          26.1363   21.4049   -0.2086 O.2       0 UNK        -0.5359 
      4 N          27.7068   21.4340    1.4153 N.am      1 UNK        -0.4318 
      5 CA         28.3214   22.7204    1.0624 C.3       1 UNK         0.0824 
      6 C6         29.7094   22.9021    1.7252 C.3       12 UNK        -0.0944 
      7 S7         30.9242   21.6579    1.1776 S.3       12 UNK        -0.2672 
      8 C8         32.4334   22.2149    2.0436 C.3       12 UNK         0.0333 
      9 C9         32.7948   23.6594    1.7171 C.ar      12 UNK        -0.0807 
     10 C10        32.8350   24.6240    2.7287 C.ar      12 UNK        -0.0894 
     11 C11        33.0994   25.9635    2.4252 C.ar      12 UNK        -0.0804 
     12 C12        33.3354   26.3324    1.0971 C.ar      12 UNK        -0.0824 
     13 C13        33.3213   25.3731    0.0796 C.ar      12 UNK        -0.0762 
     14 C14        33.0589   24.0376    0.3981 C.ar      12 UNK        -0.0782 
     15 C15        33.5756   25.7699   -1.3691 C.3       12 UNK         0.0230 
     16 S16        32.3960   27.0115   -1.9945 S.3       12 UNK        -0.2608 
     17 C17        30.7734   26.2290   -1.6868 C.3       12 UNK        -0.0989 
     18 CA         29.7150   27.2578   -1.2169 C.3       5 UNK         0.0716 
     19 N          28.3494   26.7489   -1.3380 N.am      5 UNK        -0.4135 
     20 C          27.5827   26.8570   -2.4279 C.2       4 UNK         0.5031 
     21 O          27.9688   27.3188   -3.5026 O.2       4 UNK        -0.5229 
     22 CA         26.1243   26.3876   -2.2893 C.3       4 UNK         0.0329 
     23 CB         26.0179   24.8750   -2.5425 C.3       4 UNK        -0.2001 
     24 N          25.5377   26.7004   -0.9833 N.am      4 UNK        -0.4303 
     25 C          25.3287   27.9265   -0.4850 C.2       3 UNK         0.5044 
     26 O          25.5845   28.9619   -1.0998 O.2       3 UNK        -0.5152 
     27 CA         24.7518   28.0359    0.9414 C.3       3 UNK         0.0319 
     28 CB         23.2160   28.1570    0.9110 C.3       3 UNK        -0.2001 
     29 N          25.1940   26.9893    1.8768 N.am      3 UNK        -0.4354 
     30 C          24.9292   25.6751    1.8519 C.2       2 UNK         0.4964 
     31 O          24.2134   25.1250    1.0130 O.2       2 UNK        -0.5047 
     32 CA         25.6301   24.8191    2.9184 C.3       2 UNK         0.0288 
     33 CB         24.5978   24.1623    3.8497 C.3       2 UNK        -0.2113 
     34 N          26.4937   23.7769    2.3483 N.am      2 UNK        -0.4145 
     35 C          27.4338   23.9357    1.4011 C.2       1 UNK         0.5006 
     36 O          27.6643   25.0034    0.8280 O.2       1 UNK        -0.5103 
     37 C          29.9554   27.7820    0.2110 C.2       5 UNK         0.5055 
     38 O          30.5211   28.8655    0.3716 O.2       5 UNK        -0.5220 
     39 N          29.4617   27.0621    1.2293 N.am      6 UNK        -0.4450 
     40 CA         29.4566   27.4957    2.6250 C.3       6 UNK         0.0367 
     41 CB         29.4466   26.2711    3.5568 C.3       6 UNK        -0.1929 
     42 C          28.2784   28.4470    2.8797 C.2       6 UNK         0.5070 
     43 O          27.3217   28.0898    3.5698 O.2       6 UNK        -0.5237 
     44 N          28.3639   29.6416    2.2853 N.am      7 UNK        -0.4739 
     45 CA         27.4918   30.7816    2.5781 C.3       7 UNK         0.0276 
     46 CB         27.4657   31.7202    1.3619 C.3       7 UNK        -0.1927 
     47 C          27.9456   31.5328    3.8443 C.2       7 UNK         0.5013 
     48 O          27.1355   32.2260    4.4602 O.2       7 UNK        -0.5193 
     49 N          29.2203   31.3655    4.2168 N.am      8 UNK        -0.4253 
     50 CA         29.8370   31.8422    5.4463 C.3       8 UNK         0.0242 
     51 CB         30.4283   33.2459    5.2283 C.3       8 UNK        -0.2000 
     52 C          30.9291   30.8380    5.8274 C.2       8 UNK         0.4948 
     53 O          31.5396   30.2369    4.9375 O.2       8 UNK        -0.5275 
     54 N          31.1835   30.7016    7.1353 N.am      9 UNK        -0.4246 
     55 CA         32.1541   29.7632    7.7161 C.3       9 UNK         0.0261 
     56 CB         31.9723   29.7357    9.2430 C.3       9 UNK        -0.1959 
     57 C          33.6251   30.0473    7.3543 C.2       9 UNK         0.5033 
     58 O          34.4631   29.1589    7.5113 O.2       9 UNK        -0.5390 
     59 N          33.9154   31.2658    6.8780 N.am      10 UNK        -0.4215 
     60 CA         35.2215   31.6740    6.3575 C.3       10 UNK         0.0240 
     61 CB         35.2642   33.2086    6.2637 C.3       10 UNK        -0.1982 
     62 C          35.5650   31.0432    4.9936 C.2       10 UNK         0.4970 
     63 O          36.7458   31.0008    4.6464 O.2       10 UNK        -0.4916 
     64 N          34.5467   30.5872    4.2468 N.am      11 UNK        -0.4279 
     65 CA         34.6584   29.9544    2.9197 C.3       11 UNK         0.1003 
     66 C          35.1905   30.8862    1.7875 C.2       11 UNK         0.5709 
     67 N          35.1538   32.2042    1.9464 N.am      11 UNK        -0.7358 
     68 O          35.6125   30.4152    0.7339 O.2       11 UNK        -0.4999 
     69 C69        35.3838   28.5730    2.9548 C.3       12 UNK        -0.0954 
     70 S70        34.7184   27.4006    4.1888 S.3       12 UNK        -0.2268 
     71 C71        33.0680   27.0141    3.5269 C.3       12 UNK         0.0203 
     72 H72        26.7523   19.1764    2.1230 H         1 UNK         0.0888 
     73 H73        25.1350   19.5998    1.5572 H         1 UNK         0.0888 
     74 H74        26.2639   18.7808    0.4743 H         1 UNK         0.0888 
     75 H75        28.1364   20.9400    2.1850 H         1 UNK         0.3017 
     76 H76        28.4616   22.7360   -0.0209 H         1 UNK         0.0873 
     77 H77        29.6322   22.8648    2.8137 H         1 UNK         0.0745 
     78 H78        30.1129   23.8861    1.4784 H         1 UNK         0.0745 
     79 H79        32.2905   22.0830    3.1172 H         1 UNK         0.0705 
     80 H80        33.2639   21.5665    1.7614 H         1 UNK         0.0705 
     81 H81        32.6320   24.3384    3.7518 H         1 UNK         0.1334 
     82 H82        33.5104   27.3696    0.8472 H         1 UNK         0.1417 
     83 H83        33.0295   23.2905   -0.3836 H         1 UNK         0.1562 
     84 H84        33.5393   24.8978   -2.0239 H         1 UNK         0.0748 
     85 H85        34.5860   26.1725   -1.4522 H         1 UNK         0.0748 
     86 H86        30.8548   25.4079   -0.9734 H         1 UNK         0.0940 
     87 H87        30.4569   25.7734   -2.6264 H         1 UNK         0.0940 
     88 H88        29.7910   28.1337   -1.8659 H         1 UNK         0.0703 
     89 H89        27.9453   26.3122   -0.5147 H         1 UNK         0.3081 
     90 H90        25.5361   26.9064   -3.0490 H         1 UNK         0.0719 
     91 H91        26.4340   24.6110   -3.5158 H         1 UNK         0.0809 
     92 H92        26.5569   24.2986   -1.7890 H         1 UNK         0.0809 
     93 H93        24.9793   24.5439   -2.5343 H         1 UNK         0.0809 
     94 H94        25.2477   25.9157   -0.4068 H         1 UNK         0.2990 
     95 H95        25.1407   28.9681    1.3529 H         1 UNK         0.0690 
     96 H96        22.9066   29.0111    0.3071 H         1 UNK         0.0788 
     97 H97        22.8100   28.3040    1.9118 H         1 UNK         0.0788 
     98 H98        22.7433   27.2725    0.4830 H         1 UNK         0.0788 
     99 H99        25.8431   27.3204    2.5879 H         1 UNK         0.2993 
    100 H100       26.2589   25.4700    3.5272 H         1 UNK         0.0949 
    101 H101       25.0819   23.6271    4.6669 H         1 UNK         0.0767 
    102 H102       23.9437   24.9116    4.2979 H         1 UNK         0.0767 
    103 H103       23.9637   23.4553    3.3127 H         1 UNK         0.0767 
    104 H104       26.3807   22.8512    2.7331 H         1 UNK         0.3013 
    105 H105       28.9419   26.2092    1.0362 H         1 UNK         0.3121 
    106 H106       30.3690   28.0558    2.8319 H         1 UNK         0.0774 
    107 H107       29.5138   26.5799    4.6007 H         1 UNK         0.0815 
    108 H108       28.5387   25.6825    3.4527 H         1 UNK         0.0815 
    109 H109       30.2900   25.6130    3.3590 H         1 UNK         0.0815 
    110 H110       29.1496   29.8032    1.6629 H         1 UNK         0.2987 
    111 H111       26.4763   30.4231    2.7586 H         1 UNK         0.0949 
    112 H112       26.8088   32.5725    1.5413 H         1 UNK         0.0806 
    113 H113       28.4567   32.1138    1.1323 H         1 UNK         0.0806 
    114 H114       27.0937   31.2065    0.4747 H         1 UNK         0.0806 
    115 H115       29.8127   30.7466    3.6782 H         1 UNK         0.3010 
    116 H116       29.0887   31.8732    6.2416 H         1 UNK         0.0829 
    117 H117       31.1899   33.2458    4.4472 H         1 UNK         0.0813 
    118 H118       29.6559   33.9593    4.9400 H         1 UNK         0.0813 
    119 H119       30.8921   33.6238    6.1402 H         1 UNK         0.0813 
    120 H120       30.6455   31.2496    7.7922 H         1 UNK         0.3038 
    121 H121       31.9214   28.7693    7.3272 H         1 UNK         0.0769 
    122 H122       32.1696   30.7105    9.6910 H         1 UNK         0.0811 
    123 H123       32.6551   29.0213    9.7055 H         1 UNK         0.0811 
    124 H124       30.9609   29.4361    9.5184 H         1 UNK         0.0811 
    125 H125       33.1659   31.9381    6.8112 H         1 UNK         0.3204 
    126 H126       35.9873   31.3527    7.0669 H         1 UNK         0.0748 
    127 H127       36.2350   33.5511    5.9022 H         1 UNK         0.0771 
    128 H128       34.5071   33.5946    5.5798 H         1 UNK         0.0771 
    129 H129       35.1039   33.6702    7.2383 H         1 UNK         0.0771 
    130 H130       33.6046   30.6387    4.6161 H         1 UNK         0.2980 
    131 H131       33.6287   29.7734    2.6165 H         1 UNK         0.0545 
    132 H132       35.4897   32.7989    1.2055 H         1 UNK         0.3459 
    133 H133       34.8008   32.6077    2.7984 H         1 UNK         0.3459 
    134 H134       35.3564   28.0916    1.9777 H         1 UNK         0.0616 
    135 H135       36.4421   28.7155    3.1776 H         1 UNK         0.0616 
    136 H136       32.4479   26.6648    4.3536 H         1 UNK         0.0634 
    137 H137       32.5887   27.9214    3.1662 H         1 UNK         0.0634 
@<TRIPOS>BOND
     1    1    2 1    
     2    1   72 1    
     3    1   73 1    
     4    1   74 1    
     5    2    3 2    
     6    2    4 am   BACKBONE|DICT|INTERRES
     7    4    5 1    
     8    4   75 1    
     9    5    6 1    
    10    5   35 1    
    11    5   76 1    
    12    6    7 1    
    13    6   77 1    
    14    6   78 1    
    15    7    8 1    
    16    8    9 1    
    17    8   79 1    
    18    8   80 1    
    19    9   10 ar   
    20    9   14 ar   
    21   10   11 ar   
    22   10   81 1    
    23   11   12 ar   
    24   11   71 1    
    25   12   13 ar   
    26   12   82 1    
    27   13   14 ar   
    28   13   15 1    
    29   14   83 1    
    30   15   16 1    
    31   15   84 1    
    32   15   85 1    
    33   16   17 1    
    34   17   18 1    
    35   17   86 1    
    36   17   87 1    
    37   18   19 1    
    38   18   37 1    
    39   18   88 1    
    40   19   20 am   BACKBONE|DICT|INTERRES
    41   19   89 1    
    42   20   21 2    
    43   20   22 1    
    44   22   23 1    
    45   22   24 1    
    46   22   90 1    
    47   23   91 1    
    48   23   92 1    
    49   23   93 1    
    50   24   25 am   BACKBONE|DICT|INTERRES
    51   24   94 1    
    52   25   26 2    
    53   25   27 1    
    54   27   28 1    
    55   27   29 1    
    56   27   95 1    
    57   28   96 1    
    58   28   97 1    
    59   28   98 1    
    60   29   30 am   BACKBONE|DICT|INTERRES
    61   29   99 1    
    62   30   31 2    
    63   30   32 1    
    64   32   33 1    
    65   32   34 1    
    66   32  100 1    
    67   33  101 1    
    68   33  102 1    
    69   33  103 1    
    70   34   35 am   BACKBONE|DICT|INTERRES
    71   34  104 1    
    72   35   36 2    
    73   37   38 2    
    74   37   39 am   BACKBONE|DICT|INTERRES
    75   39   40 1    
    76   39  105 1    
    77   40   41 1    
    78   40   42 1    
    79   40  106 1    
    80   41  107 1    
    81   41  108 1    
    82   41  109 1    
    83   42   43 2    
    84   42   44 am   BACKBONE|DICT|INTERRES
    85   44   45 1    
    86   44  110 1    
    87   45   46 1    
    88   45   47 1    
    89   45  111 1    
    90   46  112 1    
    91   46  113 1    
    92   46  114 1    
    93   47   48 2    
    94   47   49 am   BACKBONE|DICT|INTERRES
    95   49   50 1    
    96   49  115 1    
    97   50   51 1    
    98   50   52 1    
    99   50  116 1    
   100   51  117 1    
   101   51  118 1    
   102   51  119 1    
   103   52   53 2    
   104   52   54 am   BACKBONE|DICT|INTERRES
   105   54   55 1    
   106   54  120 1    
   107   55   56 1    
   108   55   57 1    
   109   55  121 1    
   110   56  122 1    
   111   56  123 1    
   112   56  124 1    
   113   57   58 2    
   114   57   59 am   BACKBONE|DICT|INTERRES
   115   59   60 1    
   116   59  125 1    
   117   60   61 1    
   118   60   62 1    
   119   60  126 1    
   120   61  127 1    
   121   61  128 1    
   122   61  129 1    
   123   62   63 2    
   124   62   64 am   BACKBONE|DICT|INTERRES
   125   64   65 1    
   126   64  130 1    
   127   65   66 1    
   128   65   69 1    
   129   65  131 1    
   130   66   67 am   BACKBONE|DICT|INTERRES
   131   66   68 2    
   132   67  132 1    
   133   67  133 1    
   134   69   70 1    
   135   69  134 1    
   136   69  135 1    
   137   70   71 1    
   138   71  136 1    
   139   71  137 1    
@<TRIPOS>SUBSTRUCTURE
     1 UNK         1 GROUP             0       ****    0 ROOT    
