@<TRIPOS>MOLECULE
3R136
137   139    1
SMALL
USER_CHARGES


@<TRIPOS>ATOM
      1 CA         29.7255   20.1190    1.4381 C.3       0 UNK        -0.1979 
      2 C          29.7429   20.8046    0.0799 C.2       0 UNK         0.4864 
      3 O          30.0585   20.1626   -0.9225 O.2       0 UNK        -0.5359 
      4 N          29.3938   22.0969    0.0458 N.am      1 UNK        -0.4318 
      5 CA         29.3472   22.9380   -1.1587 C.3       1 UNK         0.0824 
      6 C6         30.3334   24.1394   -1.0901 C.3       12 UNK        -0.0944 
      7 S7         32.0716   23.6180   -0.8504 S.3       12 UNK        -0.2672 
      8 C8         32.7732   24.9677    0.1731 C.3       12 UNK         0.0333 
      9 C9         32.1590   25.1572    1.5634 C.ar      12 UNK        -0.0807 
     10 C10        32.4218   26.3405    2.2609 C.ar      12 UNK        -0.0894 
     11 C11        31.8308   26.5926    3.5045 C.ar      12 UNK        -0.0804 
     12 C12        30.9636   25.6406    4.0554 C.ar      12 UNK        -0.0824 
     13 C13        30.6699   24.4667    3.3562 C.ar      12 UNK        -0.0762 
     14 C14        31.3135   24.2088    2.1460 C.ar      12 UNK        -0.0782 
     15 C15        29.5866   23.5136    3.8367 C.3       12 UNK         0.0230 
     16 S16        28.1226   23.6080    2.7403 S.3       12 UNK        -0.2608 
     17 C17        27.2683   25.0977    3.3573 C.3       12 UNK        -0.0989 
     18 CA         27.8071   26.4197    2.7540 C.3       5 UNK         0.0716 
     19 N          27.4482   26.6451    1.3484 N.am      5 UNK        -0.4135 
     20 C          27.9563   27.6591    0.6217 C.2       4 UNK         0.5031 
     21 O          28.8083   28.4361    1.0579 O.2       4 UNK        -0.5229 
     22 CA         27.4579   27.8808   -0.8179 C.3       4 UNK         0.0329 
     23 CB         28.5856   27.6371   -1.8324 C.3       4 UNK        -0.2001 
     24 N          26.2948   27.0657   -1.1662 N.am      4 UNK        -0.4303 
     25 C          25.0357   27.3752   -0.8213 C.2       3 UNK         0.5044 
     26 O          24.7272   28.4132   -0.2352 O.2       3 UNK        -0.5152 
     27 CA         23.9242   26.3669   -1.1740 C.3       3 UNK         0.0319 
     28 CB         23.1195   26.8586   -2.3884 C.3       3 UNK        -0.2001 
     29 N          24.3925   25.0024   -1.4349 N.am      3 UNK        -0.4354 
     30 C          25.0367   24.2184   -0.5600 C.2       2 UNK         0.4964 
     31 O          25.3258   24.5710    0.5843 O.2       2 UNK        -0.5047 
     32 CA         25.4651   22.8202   -1.0457 C.3       2 UNK         0.0288 
     33 CB         25.0034   22.4729   -2.4807 C.3       2 UNK        -0.2113 
     34 N          26.9130   22.6227   -0.9183 N.am      2 UNK        -0.4145 
     35 C          27.8927   23.3798   -1.4428 C.2       1 UNK         0.5006 
     36 O          27.6794   24.3835   -2.1264 O.2       1 UNK        -0.5103 
     37 C          27.4066   27.6220    3.6299 C.2       5 UNK         0.5055 
     38 O          26.3104   28.1635    3.4695 O.2       5 UNK        -0.5220 
     39 N          28.3357   28.0359    4.5031 N.am      6 UNK        -0.4450 
     40 CA         28.3483   29.2496    5.3316 C.3       6 UNK         0.0367 
     41 CB         27.1372   29.3229    6.2815 C.3       6 UNK        -0.1929 
     42 C          28.5052   30.5449    4.5141 C.2       6 UNK         0.5070 
     43 O          29.3395   31.3763    4.8690 O.2       6 UNK        -0.5237 
     44 N          27.7438   30.6797    3.4199 N.am      7 UNK        -0.4739 
     45 CA         27.7425   31.8181    2.4945 C.3       7 UNK         0.0276 
     46 CB         26.6750   31.5870    1.4133 C.3       7 UNK        -0.1927 
     47 C          29.1094   32.1128    1.8506 C.2       7 UNK         0.5013 
     48 O          29.4250   33.2810    1.6224 O.2       7 UNK        -0.5193 
     49 N          29.9053   31.0631    1.5995 N.am      8 UNK        -0.4253 
     50 CA         31.2825   31.1541    1.1062 C.3       8 UNK         0.0242 
     51 CB         31.7515   29.7597    0.6618 C.3       8 UNK        -0.2000 
     52 C          32.2811   31.7645    2.1100 C.2       8 UNK         0.4948 
     53 O          33.3651   32.1656    1.6856 O.2       8 UNK        -0.5275 
     54 N          31.9281   31.8132    3.4058 N.am      9 UNK        -0.4246 
     55 CA         32.6315   32.4340    4.5425 C.3       9 UNK         0.0261 
     56 CB         32.7225   33.9604    4.3560 C.3       9 UNK        -0.1959 
     57 C          34.0123   31.8543    4.9109 C.2       9 UNK         0.5033 
     58 O          34.3513   31.8389    6.0952 O.2       9 UNK        -0.5390 
     59 N          34.7810   31.3830    3.9210 N.am      10 UNK        -0.4215 
     60 CA         36.1542   30.8712    4.0335 C.3       10 UNK         0.0240 
     61 CB         36.6536   30.4869    2.6311 C.3       10 UNK        -0.1982 
     62 C          36.3433   29.6926    5.0077 C.2       10 UNK         0.4970 
     63 O          37.4573   29.4832    5.4893 O.2       10 UNK        -0.4916 
     64 N          35.2612   28.9578    5.2837 N.am      11 UNK        -0.4279 
     65 CA         35.1820   27.9064    6.3047 C.3       11 UNK         0.1003 
     66 C          35.2020   28.4215    7.7757 C.2       11 UNK         0.5709 
     67 N          35.0308   29.7129    8.0387 N.am      11 UNK        -0.7358 
     68 O          35.3934   27.6308    8.6967 O.2       11 UNK        -0.4999 
     69 C69        33.9891   26.9529    6.0302 C.3       12 UNK        -0.0954 
     70 S70        32.3668   27.7960    5.9866 S.3       12 UNK        -0.2268 
     71 C71        32.0753   27.9322    4.1936 C.3       12 UNK         0.0203 
     72 H72        29.2147   19.1588    1.3691 H         1 UNK         0.0888 
     73 H73        30.7446   19.9393    1.7796 H         1 UNK         0.0888 
     74 H74        29.2127   20.7166    2.1909 H         1 UNK         0.0888 
     75 H75        29.1055   22.5585    0.9006 H         1 UNK         0.3017 
     76 H76        29.6317   22.3453   -2.0303 H         1 UNK         0.0873 
     77 H77        30.3014   24.7085   -2.0205 H         1 UNK         0.0745 
     78 H78        30.0380   24.8299   -0.2983 H         1 UNK         0.0745 
     79 H79        32.6812   25.8983   -0.3893 H         1 UNK         0.0705 
     80 H80        33.8416   24.7837    0.2928 H         1 UNK         0.0705 
     81 H81        33.0736   27.0806    1.8172 H         1 UNK         0.1334 
     82 H82        30.4757   25.8342    5.0004 H         1 UNK         0.1417 
     83 H83        31.0998   23.2850    1.6341 H         1 UNK         0.1562 
     84 H84        29.3000   23.7231    4.8684 H         1 UNK         0.0748 
     85 H85        29.9760   22.4948    3.8283 H         1 UNK         0.0748 
     86 H86        27.3549   25.0961    4.4459 H         1 UNK         0.0940 
     87 H87        26.2013   24.9976    3.1498 H         1 UNK         0.0940 
     88 H88        28.8920   26.3787    2.7506 H         1 UNK         0.0703 
     89 H89        26.7301   26.0443    0.9592 H         1 UNK         0.3081 
     90 H90        27.1773   28.9331   -0.8960 H         1 UNK         0.0719 
     91 H91        29.4241   28.3107   -1.6519 H         1 UNK         0.0809 
     92 H92        28.2474   27.8084   -2.8543 H         1 UNK         0.0809 
     93 H93        28.9700   26.6216   -1.7709 H         1 UNK         0.0809 
     94 H94        26.4797   26.1837   -1.6310 H         1 UNK         0.2990 
     95 H95        23.2520   26.3213   -0.3146 H         1 UNK         0.0690 
     96 H96        22.2674   26.2094   -2.5909 H         1 UNK         0.0788 
     97 H97        23.7338   26.9004   -3.2888 H         1 UNK         0.0788 
     98 H98        22.7252   27.8613   -2.2164 H         1 UNK         0.0788 
     99 H99        24.2233   24.6365   -2.3609 H         1 UNK         0.2993 
    100 H100       24.9928   22.1108   -0.3643 H         1 UNK         0.0949 
    101 H101       23.9179   22.5289   -2.5744 H         1 UNK         0.0767 
    102 H102       25.4413   23.1355   -3.2286 H         1 UNK         0.0767 
    103 H103       25.2887   21.4540   -2.7432 H         1 UNK         0.0767 
    104 H104       27.1941   21.8369   -0.3498 H         1 UNK         0.3013 
    105 H105       29.2020   27.5185    4.5219 H         1 UNK         0.3121 
    106 H106       29.2408   29.1667    5.9547 H         1 UNK         0.0774 
    107 H107       27.2369   30.1643    6.9683 H         1 UNK         0.0815 
    108 H108       26.1982   29.4580    5.7443 H         1 UNK         0.0815 
    109 H109       27.0518   28.4198    6.8856 H         1 UNK         0.0815 
    110 H110       27.0967   29.9225    3.2175 H         1 UNK         0.2987 
    111 H111       27.4619   32.7022    3.0708 H         1 UNK         0.0949 
    112 H112       25.6819   31.4840    1.8509 H         1 UNK         0.0806 
    113 H113       26.6359   32.4244    0.7153 H         1 UNK         0.0806 
    114 H114       26.8783   30.6866    0.8331 H         1 UNK         0.0806 
    115 H115       29.5230   30.1275    1.7152 H         1 UNK         0.3010 
    116 H116       31.2800   31.8054    0.2297 H         1 UNK         0.0829 
    117 H117       31.1538   29.3905   -0.1714 H         1 UNK         0.0813 
    118 H118       32.7911   29.7740    0.3311 H         1 UNK         0.0813 
    119 H119       31.6706   29.0359    1.4711 H         1 UNK         0.0813 
    120 H120       31.0062   31.4626    3.6460 H         1 UNK         0.3038 
    121 H121       31.9901   32.2511    5.4064 H         1 UNK         0.0769 
    122 H122       33.3479   34.2300    3.5044 H         1 UNK         0.0811 
    123 H123       33.1523   34.4368    5.2382 H         1 UNK         0.0811 
    124 H124       31.7364   34.3982    4.1995 H         1 UNK         0.0811 
    125 H125       34.4164   31.5154    2.9780 H         1 UNK         0.3204 
    126 H126       36.7714   31.6915    4.4049 H         1 UNK         0.0748 
    127 H127       37.6848   30.1322    2.6643 H         1 UNK         0.0771 
    128 H128       36.0481   29.6926    2.1923 H         1 UNK         0.0771 
    129 H129       36.6285   31.3404    1.9531 H         1 UNK         0.0771 
    130 H130       34.3843   29.2295    4.8695 H         1 UNK         0.2980 
    131 H131       36.0876   27.3054    6.2037 H         1 UNK         0.0545 
    132 H132       34.8527   30.3823    7.2961 H         1 UNK         0.3459 
    133 H133       35.0539   30.0251    8.9959 H         1 UNK         0.3459 
    134 H134       33.9447   26.1669    6.7861 H         1 UNK         0.0616 
    135 H135       34.1499   26.4324    5.0851 H         1 UNK         0.0616 
    136 H136       31.2079   28.5719    4.0294 H         1 UNK         0.0634 
    137 H137       32.9205   28.4495    3.7382 H         1 UNK         0.0634 
@<TRIPOS>BOND
     1    1    2 1    
     2    1   72 1    
     3    1   73 1    
     4    1   74 1    
     5    2    3 2    
     6    2    4 am   BACKBONE|DICT|INTERRES
     7    4    5 1    
     8    4   75 1    
     9    5    6 1    
    10    5   35 1    
    11    5   76 1    
    12    6    7 1    
    13    6   77 1    
    14    6   78 1    
    15    7    8 1    
    16    8    9 1    
    17    8   79 1    
    18    8   80 1    
    19    9   10 ar   
    20    9   14 ar   
    21   10   11 ar   
    22   10   81 1    
    23   11   12 ar   
    24   11   71 1    
    25   12   13 ar   
    26   12   82 1    
    27   13   14 ar   
    28   13   15 1    
    29   14   83 1    
    30   15   16 1    
    31   15   84 1    
    32   15   85 1    
    33   16   17 1    
    34   17   18 1    
    35   17   86 1    
    36   17   87 1    
    37   18   19 1    
    38   18   37 1    
    39   18   88 1    
    40   19   20 am   BACKBONE|DICT|INTERRES
    41   19   89 1    
    42   20   21 2    
    43   20   22 1    
    44   22   23 1    
    45   22   24 1    
    46   22   90 1    
    47   23   91 1    
    48   23   92 1    
    49   23   93 1    
    50   24   25 am   BACKBONE|DICT|INTERRES
    51   24   94 1    
    52   25   26 2    
    53   25   27 1    
    54   27   28 1    
    55   27   29 1    
    56   27   95 1    
    57   28   96 1    
    58   28   97 1    
    59   28   98 1    
    60   29   30 am   BACKBONE|DICT|INTERRES
    61   29   99 1    
    62   30   31 2    
    63   30   32 1    
    64   32   33 1    
    65   32   34 1    
    66   32  100 1    
    67   33  101 1    
    68   33  102 1    
    69   33  103 1    
    70   34   35 am   BACKBONE|DICT|INTERRES
    71   34  104 1    
    72   35   36 2    
    73   37   38 2    
    74   37   39 am   BACKBONE|DICT|INTERRES
    75   39   40 1    
    76   39  105 1    
    77   40   41 1    
    78   40   42 1    
    79   40  106 1    
    80   41  107 1    
    81   41  108 1    
    82   41  109 1    
    83   42   43 2    
    84   42   44 am   BACKBONE|DICT|INTERRES
    85   44   45 1    
    86   44  110 1    
    87   45   46 1    
    88   45   47 1    
    89   45  111 1    
    90   46  112 1    
    91   46  113 1    
    92   46  114 1    
    93   47   48 2    
    94   47   49 am   BACKBONE|DICT|INTERRES
    95   49   50 1    
    96   49  115 1    
    97   50   51 1    
    98   50   52 1    
    99   50  116 1    
   100   51  117 1    
   101   51  118 1    
   102   51  119 1    
   103   52   53 2    
   104   52   54 am   BACKBONE|DICT|INTERRES
   105   54   55 1    
   106   54  120 1    
   107   55   56 1    
   108   55   57 1    
   109   55  121 1    
   110   56  122 1    
   111   56  123 1    
   112   56  124 1    
   113   57   58 2    
   114   57   59 am   BACKBONE|DICT|INTERRES
   115   59   60 1    
   116   59  125 1    
   117   60   61 1    
   118   60   62 1    
   119   60  126 1    
   120   61  127 1    
   121   61  128 1    
   122   61  129 1    
   123   62   63 2    
   124   62   64 am   BACKBONE|DICT|INTERRES
   125   64   65 1    
   126   64  130 1    
   127   65   66 1    
   128   65   69 1    
   129   65  131 1    
   130   66   67 am   BACKBONE|DICT|INTERRES
   131   66   68 2    
   132   67  132 1    
   133   67  133 1    
   134   69   70 1    
   135   69  134 1    
   136   69  135 1    
   137   70   71 1    
   138   71  136 1    
   139   71  137 1    
@<TRIPOS>SUBSTRUCTURE
     1 UNK         1 GROUP             0       ****    0 ROOT    
