@<TRIPOS>MOLECULE
3R136
137   139    1
SMALL
USER_CHARGES


@<TRIPOS>ATOM
      1 CA         28.6754   20.3732   -4.5204 C.3       0 UNK        -0.1979 
      2 C          28.9120   21.6792   -3.7761 C.2       0 UNK         0.4864 
      3 O          29.4682   22.6174   -4.3491 O.2       0 UNK        -0.5359 
      4 N          28.5009   21.7450   -2.5029 N.am      1 UNK        -0.4318 
      5 CA         28.5853   22.9385   -1.6576 C.3       1 UNK         0.0824 
      6 C6         28.4059   22.5719   -0.1625 C.3       12 UNK        -0.0944 
      7 S7         29.1285   23.8096    0.9647 S.3       12 UNK        -0.2672 
      8 C8         30.7037   23.0106    1.4002 C.3       12 UNK         0.0333 
      9 C9         31.3587   23.7219    2.5716 C.ar      12 UNK        -0.0807 
     10 C10        32.2579   24.7696    2.3544 C.ar      12 UNK        -0.0894 
     11 C11        32.8383   25.4387    3.4363 C.ar      12 UNK        -0.0804 
     12 C12        32.5127   25.0551    4.7412 C.ar      12 UNK        -0.0824 
     13 C13        31.5981   24.0229    4.9691 C.ar      12 UNK        -0.0762 
     14 C14        31.0444   23.3432    3.8795 C.ar      12 UNK        -0.0782 
     15 C15        31.1665   23.6783    6.3880 C.3       12 UNK         0.0230 
     16 S16        29.3660   23.8703    6.6190 S.3       12 UNK        -0.2608 
     17 C17        29.1151   25.6674    6.3787 C.3       12 UNK        -0.0989 
     18 CA         28.9239   26.0953    4.8934 C.3       5 UNK         0.0716 
     19 N          27.9827   25.2636    4.1381 N.am      5 UNK        -0.4135 
     20 C          26.6608   25.1713    4.3215 C.2       4 UNK         0.5031 
     21 O          26.0233   25.7899    5.1763 O.2       4 UNK        -0.5229 
     22 CA         25.9284   24.2303    3.3497 C.3       4 UNK         0.0329 
     23 CB         24.9419   23.3169    4.0981 C.3       4 UNK        -0.2001 
     24 N          25.2155   24.9291    2.2750 N.am      4 UNK        -0.4303 
     25 C          25.7121   25.8607    1.4473 C.2       3 UNK         0.5044 
     26 O          26.8351   26.3592    1.5513 O.2       3 UNK        -0.5152 
     27 CA         24.7879   26.2744    0.2898 C.3       3 UNK         0.0319 
     28 CB         24.1581   27.6645    0.5084 C.3       3 UNK        -0.2001 
     29 N          25.4822   26.1425   -0.9968 N.am      3 UNK        -0.4354 
     30 C          26.3979   26.9465   -1.5569 C.2       2 UNK         0.4964 
     31 O          26.6755   28.0790   -1.1643 O.2       2 UNK        -0.5047 
     32 CA         27.1475   26.3516   -2.7653 C.3       2 UNK         0.0288 
     33 CB         28.0213   27.3859   -3.5007 C.3       2 UNK        -0.2113 
     34 N          27.9905   25.2235   -2.3568 N.am      2 UNK        -0.4145 
     35 C          27.5477   23.9817   -2.1202 C.2       1 UNK         0.5006 
     36 O          26.3648   23.6471   -2.2404 O.2       1 UNK        -0.5103 
     37 C          28.6598   27.6083    4.7279 C.2       5 UNK         0.5055 
     38 O          28.9524   28.3834    5.6395 O.2       5 UNK        -0.5220 
     39 N          28.1414   28.0087    3.5598 N.am      6 UNK        -0.4450 
     40 CA         27.9157   29.4013    3.1717 C.3       6 UNK         0.0367 
     41 CB         26.4196   29.7302    3.3240 C.3       6 UNK        -0.1929 
     42 C          28.4401   29.6745    1.7504 C.2       6 UNK         0.5070 
     43 O          28.0467   30.6700    1.1411 O.2       6 UNK        -0.5237 
     44 N          29.3263   28.8007    1.2481 N.am      7 UNK        -0.4739 
     45 CA         29.9026   28.8606   -0.0989 C.3       7 UNK         0.0276 
     46 CB         30.6016   27.5241   -0.3993 C.3       7 UNK        -0.1927 
     47 C          30.8598   30.0454   -0.3229 C.2       7 UNK         0.5013 
     48 O          31.0505   30.4592   -1.4674 O.2       7 UNK        -0.5193 
     49 N          31.4312   30.5730    0.7628 N.am      8 UNK        -0.4253 
     50 CA         32.2913   31.7479    0.8114 C.3       8 UNK         0.0242 
     51 CB         33.7327   31.3584    0.4321 C.3       8 UNK        -0.2000 
     52 C          32.2320   32.3057    2.2365 C.2       8 UNK         0.4948 
     53 O          31.8413   31.5831    3.1569 O.2       8 UNK        -0.5275 
     54 N          32.6731   33.5582    2.4162 N.am      9 UNK        -0.4246 
     55 CA         32.7677   34.2217    3.7253 C.3       9 UNK         0.0261 
     56 CB         33.1898   35.6867    3.5289 C.3       9 UNK        -0.1959 
     57 C          33.7192   33.5123    4.7091 C.2       9 UNK         0.5033 
     58 O          33.4932   33.5624    5.9189 O.2       9 UNK        -0.5390 
     59 N          34.7381   32.8303    4.1675 N.am      10 UNK        -0.4215 
     60 CA         35.6830   31.9867    4.9005 C.3       10 UNK         0.0240 
     61 CB         36.8466   31.6172    3.9652 C.3       10 UNK        -0.1982 
     62 C          35.0569   30.7131    5.5021 C.2       10 UNK         0.4970 
     63 O          35.6607   30.1343    6.4064 O.2       10 UNK        -0.4916 
     64 N          33.8856   30.2889    5.0049 N.am      11 UNK        -0.4279 
     65 CA         33.1564   29.1131    5.5048 C.3       11 UNK         0.1003 
     66 C          32.4384   29.3364    6.8673 C.2       11 UNK         0.5709 
     67 N          32.2940   30.5650    7.3532 N.am      11 UNK        -0.7358 
     68 O          32.0283   28.3709    7.5068 O.2       11 UNK        -0.4999 
     69 C69        32.1758   28.5378    4.4499 C.3       12 UNK        -0.0954 
     70 S70        32.9576   28.1519    2.8467 S.3       12 UNK        -0.2268 
     71 C71        33.8118   26.5819    3.1943 C.3       12 UNK         0.0203 
     72 H72        28.1875   19.6281   -3.8921 H         1 UNK         0.0888 
     73 H73        28.0446   20.5473   -5.3917 H         1 UNK         0.0888 
     74 H74        29.6234   19.9592   -4.8627 H         1 UNK         0.0888 
     75 H75        28.0195   20.9547   -2.0982 H         1 UNK         0.3017 
     76 H76        29.5871   23.3537   -1.7910 H         1 UNK         0.0873 
     77 H77        27.3521   22.4394    0.0922 H         1 UNK         0.0745 
     78 H78        28.8739   21.6085    0.0455 H         1 UNK         0.0745 
     79 H79        31.3648   23.0123    0.5321 H         1 UNK         0.0705 
     80 H80        30.5316   21.9646    1.6586 H         1 UNK         0.0705 
     81 H81        32.4973   25.0730    1.3443 H         1 UNK         0.1334 
     82 H82        32.9466   25.5844    5.5789 H         1 UNK         0.1417 
     83 H83        30.3336   22.5462    4.0525 H         1 UNK         0.1562 
     84 H84        31.6883   24.2960    7.1208 H         1 UNK         0.0748 
     85 H85        31.4428   22.6450    6.6015 H         1 UNK         0.0748 
     86 H86        29.9595   26.1999    6.8216 H         1 UNK         0.0940 
     87 H87        28.2397   25.9567    6.9629 H         1 UNK         0.0940 
     88 H88        29.8760   25.9527    4.3874 H         1 UNK         0.0703 
     89 H89        28.3901   24.7465    3.3703 H         1 UNK         0.3081 
     90 H90        26.6697   23.5859    2.8726 H         1 UNK         0.0719 
     91 H91        24.5120   22.5658    3.4353 H         1 UNK         0.0809 
     92 H92        24.1223   23.8844    4.5411 H         1 UNK         0.0809 
     93 H93        25.4426   22.7836    4.9076 H         1 UNK         0.0809 
     94 H94        24.2682   24.6190    2.1146 H         1 UNK         0.2990 
     95 H95        23.9669   25.5572    0.2405 H         1 UNK         0.0690 
     96 H96        23.5139   27.9435   -0.3253 H         1 UNK         0.0788 
     97 H97        24.9106   28.4438    0.6253 H         1 UNK         0.0788 
     98 H98        23.5462   27.6737    1.4110 H         1 UNK         0.0788 
     99 H99        25.4069   25.2207   -1.4169 H         1 UNK         0.2993 
    100 H100       26.3946   25.9967   -3.4729 H         1 UNK         0.0949 
    101 H101       28.8261   27.7626   -2.8697 H         1 UNK         0.0767 
    102 H102       28.4721   26.9568   -4.3958 H         1 UNK         0.0767 
    103 H103       27.4268   28.2436   -3.8186 H         1 UNK         0.0767 
    104 H104       28.9683   25.4259   -2.2106 H         1 UNK         0.3013 
    105 H105       27.8542   27.3128    2.8718 H         1 UNK         0.3121 
    106 H106       28.4808   30.0691    3.8255 H         1 UNK         0.0774 
    107 H107       26.2099   30.7657    3.0535 H         1 UNK         0.0815 
    108 H108       25.8058   29.0918    2.6897 H         1 UNK         0.0815 
    109 H109       26.0896   29.5922    4.3537 H         1 UNK         0.0815 
    110 H110       29.6066   28.0207    1.8234 H         1 UNK         0.2987 
    111 H111       29.0796   28.9867   -0.8036 H         1 UNK         0.0949 
    112 H112       29.9057   26.6887   -0.3187 H         1 UNK         0.0806 
    113 H113       31.0076   27.5143   -1.4116 H         1 UNK         0.0806 
    114 H114       31.4294   27.3386    0.2857 H         1 UNK         0.0806 
    115 H115       31.2025   30.1958    1.6751 H         1 UNK         0.3010 
    116 H116       31.9102   32.5038    0.1215 H         1 UNK         0.0829 
    117 H117       33.7796   30.9423   -0.5743 H         1 UNK         0.0813 
    118 H118       34.3959   32.2238    0.4517 H         1 UNK         0.0813 
    119 H119       34.1413   30.6146    1.1179 H         1 UNK         0.0813 
    120 H120       32.9763   34.0913    1.6130 H         1 UNK         0.3038 
    121 H121       31.7718   34.2094    4.1736 H         1 UNK         0.0769 
    122 H122       34.1704   35.7666    3.0581 H         1 UNK         0.0811 
    123 H123       33.2447   36.2079    4.4859 H         1 UNK         0.0811 
    124 H124       32.4735   36.2272    2.9097 H         1 UNK         0.0811 
    125 H125       34.8420   32.8583    3.1641 H         1 UNK         0.3204 
    126 H126       36.0817   32.5742    5.7304 H         1 UNK         0.0748 
    127 H127       37.5930   31.0169    4.4877 H         1 UNK         0.0771 
    128 H128       36.5058   31.0371    3.1064 H         1 UNK         0.0771 
    129 H129       37.3549   32.5065    3.5915 H         1 UNK         0.0771 
    130 H130       33.4124   30.8208    4.2839 H         1 UNK         0.2980 
    131 H131       33.8982   28.3369    5.6995 H         1 UNK         0.0545 
    132 H132       32.6375   31.3647    6.8420 H         1 UNK         0.3459 
    133 H133       31.8341   30.6920    8.2404 H         1 UNK         0.3459 
    134 H134       31.3696   29.2482    4.2627 H         1 UNK         0.0616 
    135 H135       31.6891   27.6404    4.8287 H         1 UNK         0.0616 
    136 H136       34.4508   26.3397    2.3441 H         1 UNK         0.0634 
    137 H137       34.4802   26.7085    4.0467 H         1 UNK         0.0634 
@<TRIPOS>BOND
     1    1    2 1    
     2    1   72 1    
     3    1   73 1    
     4    1   74 1    
     5    2    3 2    
     6    2    4 am   BACKBONE|DICT|INTERRES
     7    4    5 1    
     8    4   75 1    
     9    5    6 1    
    10    5   35 1    
    11    5   76 1    
    12    6    7 1    
    13    6   77 1    
    14    6   78 1    
    15    7    8 1    
    16    8    9 1    
    17    8   79 1    
    18    8   80 1    
    19    9   10 ar   
    20    9   14 ar   
    21   10   11 ar   
    22   10   81 1    
    23   11   12 ar   
    24   11   71 1    
    25   12   13 ar   
    26   12   82 1    
    27   13   14 ar   
    28   13   15 1    
    29   14   83 1    
    30   15   16 1    
    31   15   84 1    
    32   15   85 1    
    33   16   17 1    
    34   17   18 1    
    35   17   86 1    
    36   17   87 1    
    37   18   19 1    
    38   18   37 1    
    39   18   88 1    
    40   19   20 am   BACKBONE|DICT|INTERRES
    41   19   89 1    
    42   20   21 2    
    43   20   22 1    
    44   22   23 1    
    45   22   24 1    
    46   22   90 1    
    47   23   91 1    
    48   23   92 1    
    49   23   93 1    
    50   24   25 am   BACKBONE|DICT|INTERRES
    51   24   94 1    
    52   25   26 2    
    53   25   27 1    
    54   27   28 1    
    55   27   29 1    
    56   27   95 1    
    57   28   96 1    
    58   28   97 1    
    59   28   98 1    
    60   29   30 am   BACKBONE|DICT|INTERRES
    61   29   99 1    
    62   30   31 2    
    63   30   32 1    
    64   32   33 1    
    65   32   34 1    
    66   32  100 1    
    67   33  101 1    
    68   33  102 1    
    69   33  103 1    
    70   34   35 am   BACKBONE|DICT|INTERRES
    71   34  104 1    
    72   35   36 2    
    73   37   38 2    
    74   37   39 am   BACKBONE|DICT|INTERRES
    75   39   40 1    
    76   39  105 1    
    77   40   41 1    
    78   40   42 1    
    79   40  106 1    
    80   41  107 1    
    81   41  108 1    
    82   41  109 1    
    83   42   43 2    
    84   42   44 am   BACKBONE|DICT|INTERRES
    85   44   45 1    
    86   44  110 1    
    87   45   46 1    
    88   45   47 1    
    89   45  111 1    
    90   46  112 1    
    91   46  113 1    
    92   46  114 1    
    93   47   48 2    
    94   47   49 am   BACKBONE|DICT|INTERRES
    95   49   50 1    
    96   49  115 1    
    97   50   51 1    
    98   50   52 1    
    99   50  116 1    
   100   51  117 1    
   101   51  118 1    
   102   51  119 1    
   103   52   53 2    
   104   52   54 am   BACKBONE|DICT|INTERRES
   105   54   55 1    
   106   54  120 1    
   107   55   56 1    
   108   55   57 1    
   109   55  121 1    
   110   56  122 1    
   111   56  123 1    
   112   56  124 1    
   113   57   58 2    
   114   57   59 am   BACKBONE|DICT|INTERRES
   115   59   60 1    
   116   59  125 1    
   117   60   61 1    
   118   60   62 1    
   119   60  126 1    
   120   61  127 1    
   121   61  128 1    
   122   61  129 1    
   123   62   63 2    
   124   62   64 am   BACKBONE|DICT|INTERRES
   125   64   65 1    
   126   64  130 1    
   127   65   66 1    
   128   65   69 1    
   129   65  131 1    
   130   66   67 am   BACKBONE|DICT|INTERRES
   131   66   68 2    
   132   67  132 1    
   133   67  133 1    
   134   69   70 1    
   135   69  134 1    
   136   69  135 1    
   137   70   71 1    
   138   71  136 1    
   139   71  137 1    
@<TRIPOS>SUBSTRUCTURE
     1 UNK         1 GROUP             0       ****    0 ROOT    
