@<TRIPOS>MOLECULE
3R136
137   139    1
SMALL
USER_CHARGES


@<TRIPOS>ATOM
      1 CA         31.3962   26.7522   -0.6702 C.3       0 UNK        -0.1979 
      2 C          30.5463   25.5465   -1.0373 C.2       0 UNK         0.4864 
      3 O          30.5605   25.1135   -2.1898 O.2       0 UNK        -0.5359 
      4 N          29.7840   25.0226   -0.0690 N.am      1 UNK        -0.4318 
      5 CA         28.9304   23.8257   -0.1211 C.3       1 UNK         0.0824 
      6 C6         29.6553   22.5193   -0.5524 C.3       12 UNK        -0.0944 
      7 S7         31.2630   22.1916    0.2509 S.3       12 UNK        -0.2672 
      8 C8         30.8269   22.0391    2.0188 C.3       12 UNK         0.0333 
      9 C9         31.2222   23.2249    2.9061 C.ar      12 UNK        -0.0807 
     10 C10        32.1029   24.2351    2.4878 C.ar      12 UNK        -0.0894 
     11 C11        32.4649   25.2720    3.3533 C.ar      12 UNK        -0.0804 
     12 C12        31.9572   25.2921    4.6531 C.ar      12 UNK        -0.0824 
     13 C13        31.0725   24.3022    5.0839 C.ar      12 UNK        -0.0762 
     14 C14        30.7117   23.2736    4.2083 C.ar      12 UNK        -0.0782 
     15 C15        30.5021   24.3503    6.4932 C.3       12 UNK         0.0230 
     16 S16        28.7812   24.9449    6.5014 S.3       12 UNK        -0.2608 
     17 C17        28.9637   26.6788    5.9513 C.3       12 UNK        -0.0989 
     18 CA         28.7449   26.8621    4.4268 C.3       5 UNK         0.0716 
     19 N          27.4914   26.2475    3.9803 N.am      5 UNK        -0.4135 
     20 C          27.1386   26.0580    2.7049 C.2       4 UNK         0.5031 
     21 O          27.8340   26.4124    1.7488 O.2       4 UNK        -0.5229 
     22 CA         25.8029   25.3289    2.4577 C.3       4 UNK         0.0329 
     23 CB         24.7669   25.5124    3.5911 C.3       4 UNK        -0.2001 
     24 N          25.2272   25.6825    1.1582 N.am      4 UNK        -0.4303 
     25 C          24.8178   26.8950    0.7535 C.2       3 UNK         0.5044 
     26 O          24.7855   27.8954    1.4727 O.2       3 UNK        -0.5152 
     27 CA         24.4388   26.9943   -0.7304 C.3       3 UNK         0.0319 
     28 CB         24.1469   28.4328   -1.2012 C.3       3 UNK        -0.2001 
     29 N          25.5291   26.4141   -1.5118 N.am      3 UNK        -0.4354 
     30 C          25.3891   25.5860   -2.5512 C.2       2 UNK         0.4964 
     31 O          24.3080   25.3138   -3.0741 O.2       2 UNK        -0.5047 
     32 CA         26.6737   24.9263   -3.0870 C.3       2 UNK         0.0288 
     33 CB         27.2468   25.7495   -4.2521 C.3       2 UNK        -0.2113 
     34 N          27.7338   24.7121   -2.0913 N.am      2 UNK        -0.4145 
     35 C          27.6391   24.0172   -0.9474 C.2       1 UNK         0.5006 
     36 O          26.5851   23.5346   -0.5290 O.2       1 UNK        -0.5103 
     37 C          28.8543   28.3499    4.0314 C.2       5 UNK         0.5055 
     38 O          29.9599   28.8412    3.7909 O.2       5 UNK        -0.5220 
     39 N          27.7050   29.0366    3.9506 N.am      6 UNK        -0.4450 
     40 CA         27.5780   30.4544    3.6050 C.3       6 UNK         0.0367 
     41 CB         26.1068   30.8756    3.7435 C.3       6 UNK        -0.1929 
     42 C          28.1029   30.8136    2.2047 C.2       6 UNK         0.5070 
     43 O          28.5446   31.9460    2.0099 O.2       6 UNK        -0.5237 
     44 N          28.0919   29.8468    1.2740 N.am      7 UNK        -0.4739 
     45 CA         28.5431   29.9937   -0.1157 C.3       7 UNK         0.0276 
     46 CB         28.2703   28.6859   -0.8720 C.3       7 UNK        -0.1927 
     47 C          30.0142   30.4187   -0.2848 C.2       7 UNK         0.5013 
     48 O          30.3529   30.9834   -1.3254 O.2       7 UNK        -0.5193 
     49 N          30.8483   30.1657    0.7316 N.am      8 UNK        -0.4253 
     50 CA         32.2262   30.6520    0.8146 C.3       8 UNK         0.0242 
     51 CB         33.2025   29.5376    0.3967 C.3       8 UNK        -0.2000 
     52 C          32.5258   31.2243    2.2096 C.2       8 UNK         0.4948 
     53 O          33.6695   31.1456    2.6594 O.2       8 UNK        -0.5275 
     54 N          31.4991   31.7768    2.8798 N.am      9 UNK        -0.4246 
     55 CA         31.5492   32.4171    4.2041 C.3       9 UNK         0.0261 
     56 CB         32.2039   33.8096    4.0893 C.3       9 UNK        -0.1959 
     57 C          32.2054   31.5410    5.2935 C.2       9 UNK         0.5033 
     58 O          33.0281   32.0302    6.0697 O.2       9 UNK        -0.5390 
     59 N          31.8546   30.2476    5.2937 N.am      10 UNK        -0.4215 
     60 CA         32.3744   29.1660    6.1369 C.3       10 UNK         0.0240 
     61 CB         32.1360   29.4436    7.6362 C.3       10 UNK        -0.1982 
     62 C          33.8235   28.7323    5.8365 C.2       10 UNK         0.4970 
     63 O          34.3156   27.8484    6.5380 O.2       10 UNK        -0.4916 
     64 N          34.4530   29.3050    4.7968 N.am      11 UNK        -0.4279 
     65 CA         35.7821   28.9777    4.2436 C.3       11 UNK         0.1003 
     66 C          36.9641   28.8539    5.2549 C.2       11 UNK         0.5709 
     67 N          36.9263   29.5517    6.3838 N.am      11 UNK        -0.7358 
     68 O          37.9467   28.1593    5.0036 O.2       11 UNK        -0.4999 
     69 C69        35.7362   27.8804    3.1353 C.3       12 UNK        -0.0954 
     70 S70        35.0382   26.2676    3.6305 S.3       12 UNK        -0.2268 
     71 C71        33.3823   26.3901    2.8861 C.3       12 UNK         0.0203 
     72 H72        31.1947   27.0972    0.3439 H         1 UNK         0.0888 
     73 H73        32.4534   26.4981   -0.7401 H         1 UNK         0.0888 
     74 H74        31.1974   27.5753   -1.3560 H         1 UNK         0.0888 
     75 H75        29.7411   25.5014    0.8218 H         1 UNK         0.3017 
     76 H76        28.6004   23.6852    0.9091 H         1 UNK         0.0873 
     77 H77        29.8399   22.5293   -1.6284 H         1 UNK         0.0745 
     78 H78        29.0102   21.6570   -0.3724 H         1 UNK         0.0745 
     79 H79        31.3275   21.1511    2.4067 H         1 UNK         0.0705 
     80 H80        29.7571   21.8475    2.1125 H         1 UNK         0.0705 
     81 H81        32.5189   24.2232    1.4910 H         1 UNK         0.1334 
     82 H82        32.2478   26.0853    5.3265 H         1 UNK         0.1417 
     83 H83        30.0315   22.5039    4.5481 H         1 UNK         0.1562 
     84 H84        31.1105   24.9841    7.1406 H         1 UNK         0.0748 
     85 H85        30.5326   23.3513    6.9306 H         1 UNK         0.0748 
     86 H86        29.9461   27.0418    6.2510 H         1 UNK         0.0940 
     87 H87        28.2435   27.2770    6.5134 H         1 UNK         0.0940 
     88 H88        29.5480   26.3485    3.8976 H         1 UNK         0.0703 
     89 H89        26.8886   25.8949    4.7092 H         1 UNK         0.3081 
     90 H90        26.0463   24.2672    2.3969 H         1 UNK         0.0719 
     91 H91        24.5717   26.5646    3.8021 H         1 UNK         0.0809 
     92 H92        23.8157   25.0482    3.3301 H         1 UNK         0.0809 
     93 H93        25.0986   25.0433    4.5180 H         1 UNK         0.0809 
     94 H94        25.2812   24.9485    0.4605 H         1 UNK         0.2990 
     95 H95        23.5311   26.4007   -0.8593 H         1 UNK         0.0690 
     96 H96        23.9017   28.4592   -2.2630 H         1 UNK         0.0788 
     97 H97        24.9924   29.0998   -1.0354 H         1 UNK         0.0788 
     98 H98        23.2958   28.8504   -0.6619 H         1 UNK         0.0788 
     99 H99        26.4576   26.5462   -1.1353 H         1 UNK         0.2993 
    100 H100       26.3901   23.9430   -3.4678 H         1 UNK         0.0949 
    101 H101       28.0920   25.2424   -4.7183 H         1 UNK         0.0767 
    102 H102       26.4964   25.9062   -5.0285 H         1 UNK         0.0767 
    103 H103       27.5862   26.7322   -3.9216 H         1 UNK         0.0767 
    104 H104       28.6686   25.0234   -2.3453 H         1 UNK         0.3013 
    105 H105       26.8444   28.5427    4.1373 H         1 UNK         0.3121 
    106 H106       28.1678   31.0223    4.3277 H         1 UNK         0.0774 
    107 H107       25.9799   31.9344    3.5127 H         1 UNK         0.0815 
    108 H108       25.4618   30.3147    3.0651 H         1 UNK         0.0815 
    109 H109       25.7420   30.7223    4.7593 H         1 UNK         0.0815 
    110 H110       27.7298   28.9390    1.5369 H         1 UNK         0.2987 
    111 H111       27.9388   30.7817   -0.5703 H         1 UNK         0.0949 
    112 H112       28.7346   27.8336   -0.3789 H         1 UNK         0.0806 
    113 H113       27.2027   28.4940   -0.9326 H         1 UNK         0.0806 
    114 H114       28.6492   28.7274   -1.8945 H         1 UNK         0.0806 
    115 H115       30.4834   29.6947    1.5508 H         1 UNK         0.3010 
    116 H116       32.3642   31.4906    0.1288 H         1 UNK         0.0829 
    117 H117       33.0213   29.2211   -0.6301 H         1 UNK         0.0813 
    118 H118       34.2380   29.8767    0.4458 H         1 UNK         0.0813 
    119 H119       33.1093   28.6661    1.0416 H         1 UNK         0.0813 
    120 H120       30.5935   31.8082    2.4217 H         1 UNK         0.3038 
    121 H121       30.5135   32.5626    4.5149 H         1 UNK         0.0769 
    122 H122       32.1586   34.3449    5.0386 H         1 UNK         0.0811 
    123 H123       31.6971   34.4264    3.3472 H         1 UNK         0.0811 
    124 H124       33.2545   33.7377    3.8049 H         1 UNK         0.0811 
    125 H125       31.1755   29.9353    4.5998 H         1 UNK         0.3204 
    126 H126       31.7692   28.3016    5.8732 H         1 UNK         0.0748 
    127 H127       32.3620   28.5627    8.2384 H         1 UNK         0.0771 
    128 H128       32.7641   30.2547    8.0051 H         1 UNK         0.0771 
    129 H129       31.0964   29.7073    7.8303 H         1 UNK         0.0771 
    130 H130       33.9699   30.0366    4.2857 H         1 UNK         0.2980 
    131 H131       36.0499   29.8892    3.7081 H         1 UNK         0.0545 
    132 H132       37.6934   29.4834    7.0335 H         1 UNK         0.3459 
    133 H133       36.1263   30.1244    6.6013 H         1 UNK         0.3459 
    134 H134       35.1618   28.2601    2.2904 H         1 UNK         0.0616 
    135 H135       36.7336   27.7034    2.7299 H         1 UNK         0.0616 
    136 H136       33.4813   26.3776    1.7999 H         1 UNK         0.0634 
    137 H137       32.9330   27.3493    3.1485 H         1 UNK         0.0634 
@<TRIPOS>BOND
     1    1    2 1    
     2    1   72 1    
     3    1   73 1    
     4    1   74 1    
     5    2    3 2    
     6    2    4 am   BACKBONE|DICT|INTERRES
     7    4    5 1    
     8    4   75 1    
     9    5    6 1    
    10    5   35 1    
    11    5   76 1    
    12    6    7 1    
    13    6   77 1    
    14    6   78 1    
    15    7    8 1    
    16    8    9 1    
    17    8   79 1    
    18    8   80 1    
    19    9   10 ar   
    20    9   14 ar   
    21   10   11 ar   
    22   10   81 1    
    23   11   12 ar   
    24   11   71 1    
    25   12   13 ar   
    26   12   82 1    
    27   13   14 ar   
    28   13   15 1    
    29   14   83 1    
    30   15   16 1    
    31   15   84 1    
    32   15   85 1    
    33   16   17 1    
    34   17   18 1    
    35   17   86 1    
    36   17   87 1    
    37   18   19 1    
    38   18   37 1    
    39   18   88 1    
    40   19   20 am   BACKBONE|DICT|INTERRES
    41   19   89 1    
    42   20   21 2    
    43   20   22 1    
    44   22   23 1    
    45   22   24 1    
    46   22   90 1    
    47   23   91 1    
    48   23   92 1    
    49   23   93 1    
    50   24   25 am   BACKBONE|DICT|INTERRES
    51   24   94 1    
    52   25   26 2    
    53   25   27 1    
    54   27   28 1    
    55   27   29 1    
    56   27   95 1    
    57   28   96 1    
    58   28   97 1    
    59   28   98 1    
    60   29   30 am   BACKBONE|DICT|INTERRES
    61   29   99 1    
    62   30   31 2    
    63   30   32 1    
    64   32   33 1    
    65   32   34 1    
    66   32  100 1    
    67   33  101 1    
    68   33  102 1    
    69   33  103 1    
    70   34   35 am   BACKBONE|DICT|INTERRES
    71   34  104 1    
    72   35   36 2    
    73   37   38 2    
    74   37   39 am   BACKBONE|DICT|INTERRES
    75   39   40 1    
    76   39  105 1    
    77   40   41 1    
    78   40   42 1    
    79   40  106 1    
    80   41  107 1    
    81   41  108 1    
    82   41  109 1    
    83   42   43 2    
    84   42   44 am   BACKBONE|DICT|INTERRES
    85   44   45 1    
    86   44  110 1    
    87   45   46 1    
    88   45   47 1    
    89   45  111 1    
    90   46  112 1    
    91   46  113 1    
    92   46  114 1    
    93   47   48 2    
    94   47   49 am   BACKBONE|DICT|INTERRES
    95   49   50 1    
    96   49  115 1    
    97   50   51 1    
    98   50   52 1    
    99   50  116 1    
   100   51  117 1    
   101   51  118 1    
   102   51  119 1    
   103   52   53 2    
   104   52   54 am   BACKBONE|DICT|INTERRES
   105   54   55 1    
   106   54  120 1    
   107   55   56 1    
   108   55   57 1    
   109   55  121 1    
   110   56  122 1    
   111   56  123 1    
   112   56  124 1    
   113   57   58 2    
   114   57   59 am   BACKBONE|DICT|INTERRES
   115   59   60 1    
   116   59  125 1    
   117   60   61 1    
   118   60   62 1    
   119   60  126 1    
   120   61  127 1    
   121   61  128 1    
   122   61  129 1    
   123   62   63 2    
   124   62   64 am   BACKBONE|DICT|INTERRES
   125   64   65 1    
   126   64  130 1    
   127   65   66 1    
   128   65   69 1    
   129   65  131 1    
   130   66   67 am   BACKBONE|DICT|INTERRES
   131   66   68 2    
   132   67  132 1    
   133   67  133 1    
   134   69   70 1    
   135   69  134 1    
   136   69  135 1    
   137   70   71 1    
   138   71  136 1    
   139   71  137 1    
@<TRIPOS>SUBSTRUCTURE
     1 UNK         1 GROUP             0       ****    0 ROOT    
