@<TRIPOS>MOLECULE
3R136
137   139    1
SMALL
USER_CHARGES


@<TRIPOS>ATOM
      1 CA         29.4013   22.6739   -1.5241 C.3       0 UNK        -0.1979 
      2 C          30.4312   22.7392   -2.6504 C.2       0 UNK         0.4864 
      3 O          30.2323   22.0883   -3.6752 O.2       0 UNK        -0.5359 
      4 N          31.5445   23.4789   -2.5257 N.am      1 UNK        -0.4318 
      5 CA         31.9456   24.3744   -1.4329 C.3       1 UNK         0.0824 
      6 C6         32.1146   23.6475   -0.0674 C.3       12 UNK        -0.0944 
      7 S7         33.4129   24.4098    0.9568 S.3       12 UNK        -0.2672 
      8 C8         33.1409   23.5536    2.5371 C.3       12 UNK         0.0333 
      9 C9         31.9616   24.1350    3.3033 C.ar      12 UNK        -0.0807 
     10 C10        32.0503   25.4214    3.8399 C.ar      12 UNK        -0.0894 
     11 C11        30.9987   25.9536    4.5888 C.ar      12 UNK        -0.0804 
     12 C12        29.8550   25.1831    4.8153 C.ar      12 UNK        -0.0824 
     13 C13        29.7527   23.8914    4.2861 C.ar      12 UNK        -0.0762 
     14 C14        30.8049   23.3785    3.5185 C.ar      12 UNK        -0.0782 
     15 C15        28.5401   23.0211    4.5942 C.3       12 UNK         0.0230 
     16 S16        27.1472   23.3216    3.4594 S.3       12 UNK        -0.2608 
     17 C17        26.4111   24.8369    4.1632 C.3       12 UNK        -0.0989 
     18 CA         26.5315   26.0363    3.1839 C.3       5 UNK         0.0716 
     19 N          25.7441   25.8545    1.9566 N.am      5 UNK        -0.4135 
     20 C          24.4041   25.8312    1.8552 C.2       4 UNK         0.5031 
     21 O          23.6490   25.8127    2.8285 O.2       4 UNK        -0.5229 
     22 CA         23.7942   25.8937    0.4359 C.3       4 UNK         0.0329 
     23 CB         22.4979   26.7317    0.4063 C.3       4 UNK        -0.2001 
     24 N          24.7192   26.3651   -0.6055 N.am      4 UNK        -0.4303 
     25 C          25.3952   27.5234   -0.6353 C.2       3 UNK         0.5044 
     26 O          25.3283   28.3997    0.2323 O.2       3 UNK        -0.5152 
     27 CA         26.4028   27.6758   -1.7850 C.3       3 UNK         0.0319 
     28 CB         26.0674   28.9010   -2.6499 C.3       3 UNK        -0.2001 
     29 N          27.7733   27.7888   -1.2783 N.am      3 UNK        -0.4354 
     30 C          28.3831   26.8921   -0.4892 C.2       2 UNK         0.4964 
     31 O          27.8667   25.8368   -0.1125 O.2       2 UNK        -0.5047 
     32 CA         29.7942   27.2498    0.0028 C.3       2 UNK         0.0288 
     33 CB         29.7489   27.5946    1.4995 C.3       2 UNK        -0.2113 
     34 N          30.7339   26.1480   -0.2088 N.am      2 UNK        -0.4145 
     35 C          31.0707   25.6489   -1.4063 C.2       1 UNK         0.5006 
     36 O          30.7179   26.1553   -2.4747 O.2       1 UNK        -0.5103 
     37 C          26.2823   27.4070    3.8680 C.2       5 UNK         0.5055 
     38 O          26.6248   27.5653    5.0411 O.2       5 UNK        -0.5220 
     39 N          25.7018   28.3738    3.1398 N.am      6 UNK        -0.4450 
     40 CA         25.3285   29.6967    3.6435 C.3       6 UNK         0.0367 
     41 CB         23.9169   30.0370    3.1376 C.3       6 UNK        -0.1929 
     42 C          26.3231   30.7822    3.2080 C.2       6 UNK         0.5070 
     43 O          26.4952   31.7638    3.9321 O.2       6 UNK        -0.5237 
     44 N          26.9455   30.6047    2.0350 N.am      7 UNK        -0.4739 
     45 CA         27.9595   31.5082    1.4853 C.3       7 UNK         0.0276 
     46 CB         28.1074   31.2169   -0.0170 C.3       7 UNK        -0.1927 
     47 C          29.3191   31.3826    2.1998 C.2       7 UNK         0.5013 
     48 O          29.5266   30.4692    3.0021 O.2       7 UNK        -0.5193 
     49 N          30.2399   32.2948    1.8655 N.am      8 UNK        -0.4253 
     50 CA         31.6409   32.2295    2.2806 C.3       8 UNK         0.0242 
     51 CB         32.2952   33.6063    2.0798 C.3       8 UNK        -0.2000 
     52 C          32.3958   31.1507    1.4846 C.2       8 UNK         0.4948 
     53 O          32.1647   31.0057    0.2817 O.2       8 UNK        -0.5275 
     54 N          33.3043   30.4515    2.1694 N.am      9 UNK        -0.4246 
     55 CA         34.2131   29.4289    1.6543 C.3       9 UNK         0.0261 
     56 CB         33.4511   28.1869    1.1317 C.3       9 UNK        -0.1959 
     57 C          35.1966   29.1236    2.7943 C.2       9 UNK         0.5033 
     58 O          35.6761   30.0643    3.4323 O.2       9 UNK        -0.5390 
     59 N          35.4315   27.8358    3.0884 N.am      10 UNK        -0.4215 
     60 CA         36.2772   27.3389    4.1845 C.3       10 UNK         0.0240 
     61 CB         36.2834   25.8015    4.1529 C.3       10 UNK        -0.1982 
     62 C          35.8871   27.8399    5.5918 C.2       10 UNK         0.4970 
     63 O          36.7388   27.8481    6.4812 O.2       10 UNK        -0.4916 
     64 N          34.6272   28.2621    5.7618 N.am      11 UNK        -0.4279 
     65 CA         34.1089   28.9334    6.9637 C.3       11 UNK         0.1003 
     66 C          34.6759   30.3661    7.1961 C.2       11 UNK         0.5709 
     67 N          35.3218   31.0011    6.2234 N.am      11 UNK        -0.7358 
     68 O          34.5284   30.9108    8.2876 O.2       11 UNK        -0.4999 
     69 C69        32.5560   28.9537    6.9887 C.3       12 UNK        -0.0954 
     70 S70        31.8277   27.2883    6.8421 S.3       12 UNK        -0.2268 
     71 C71        31.1160   27.3522    5.1693 C.3       12 UNK         0.0203 
     72 H72        29.7606   22.0393   -0.7150 H         1 UNK         0.0888 
     73 H73        29.1617   23.6560   -1.1226 H         1 UNK         0.0888 
     74 H74        28.4696   22.2432   -1.8901 H         1 UNK         0.0888 
     75 H75        32.1746   23.4959   -3.3153 H         1 UNK         0.3017 
     76 H76        32.9324   24.7263   -1.7388 H         1 UNK         0.0873 
     77 H77        31.1790   23.5923    0.4914 H         1 UNK         0.0745 
     78 H78        32.4206   22.6131   -0.2336 H         1 UNK         0.0745 
     79 H79        34.0408   23.6463    3.1460 H         1 UNK         0.0705 
     80 H80        33.0072   22.4859    2.3559 H         1 UNK         0.0705 
     81 H81        32.9474   26.0028    3.6852 H         1 UNK         0.1334 
     82 H82        29.0579   25.5878    5.4223 H         1 UNK         0.1417 
     83 H83        30.7355   22.3767    3.1165 H         1 UNK         0.1562 
     84 H84        28.2203   23.1702    5.6266 H         1 UNK         0.0748 
     85 H85        28.8160   21.9679    4.5226 H         1 UNK         0.0748 
     86 H86        26.8885   25.0501    5.1192 H         1 UNK         0.0940 
     87 H87        25.3674   24.6364    4.4079 H         1 UNK         0.0940 
     88 H88        27.5697   26.0812    2.8569 H         1 UNK         0.0703 
     89 H89        26.2943   25.8261    1.1028 H         1 UNK         0.3081 
     90 H90        23.5351   24.8668    0.1745 H         1 UNK         0.0719 
     91 H91        22.6747   27.7597    0.7251 H         1 UNK         0.0809 
     92 H92        22.0661   26.7605   -0.5941 H         1 UNK         0.0809 
     93 H93        21.7410   26.3116    1.0699 H         1 UNK         0.0809 
     94 H94        24.8990   25.7013   -1.3467 H         1 UNK         0.2990 
     95 H95        26.3610   26.7890   -2.4208 H         1 UNK         0.0690 
     96 H96        26.7634   29.0047   -3.4825 H         1 UNK         0.0788 
     97 H97        26.0921   29.8252   -2.0726 H         1 UNK         0.0788 
     98 H98        25.0666   28.8132   -3.0750 H         1 UNK         0.0788 
     99 H99        28.2745   28.6232   -1.5435 H         1 UNK         0.2993 
    100 H100       30.1554   28.1213   -0.5477 H         1 UNK         0.0949 
    101 H101       29.6699   26.7001    2.1166 H         1 UNK         0.0767 
    102 H102       30.6370   28.1401    1.8128 H         1 UNK         0.0767 
    103 H103       28.8924   28.2270    1.7357 H         1 UNK         0.0767 
    104 H104       31.0735   25.6770    0.6179 H         1 UNK         0.3013 
    105 H105       25.4777   28.1890    2.1658 H         1 UNK         0.3121 
    106 H106       25.3024   29.6904    4.7353 H         1 UNK         0.0774 
    107 H107       23.5926   31.0099    3.5093 H         1 UNK         0.0815 
    108 H108       23.8751   30.0723    2.0479 H         1 UNK         0.0815 
    109 H109       23.1877   29.3004    3.4757 H         1 UNK         0.0815 
    110 H110       26.7235   29.7813    1.4927 H         1 UNK         0.2987 
    111 H111       27.6073   32.5348    1.6100 H         1 UNK         0.0949 
    112 H112       28.5266   30.2270   -0.1893 H         1 UNK         0.0806 
    113 H113       27.1465   31.2764   -0.5274 H         1 UNK         0.0806 
    114 H114       28.7699   31.9362   -0.4999 H         1 UNK         0.0806 
    115 H115       30.0098   32.9896    1.1702 H         1 UNK         0.3010 
    116 H116       31.6761   31.9813    3.3442 H         1 UNK         0.0829 
    117 H117       31.7832   34.3775    2.6556 H         1 UNK         0.0813 
    118 H118       33.3355   33.5955    2.4080 H         1 UNK         0.0813 
    119 H119       32.2881   33.9083    1.0315 H         1 UNK         0.0813 
    120 H120       33.4864   30.7054    3.1319 H         1 UNK         0.3038 
    121 H121       34.7882   29.8633    0.8344 H         1 UNK         0.0769 
    122 H122       32.8899   27.6897    1.9220 H         1 UNK         0.0811 
    123 H123       34.1348   27.4580    0.6951 H         1 UNK         0.0811 
    124 H124       32.7461   28.4486    0.3434 H         1 UNK         0.0811 
    125 H125       35.0055   27.1342    2.5003 H         1 UNK         0.3204 
    126 H126       37.2925   27.6906    3.9908 H         1 UNK         0.0748 
    127 H127       36.9622   25.3992    4.9064 H         1 UNK         0.0771 
    128 H128       35.2943   25.3906    4.3570 H         1 UNK         0.0771 
    129 H129       36.6150   25.4212    3.1864 H         1 UNK         0.0771 
    130 H130       33.9947   28.2059    4.9813 H         1 UNK         0.2980 
    131 H131       34.4390   28.3427    7.8203 H         1 UNK         0.0545 
    132 H132       35.6835   31.9244    6.4002 H         1 UNK         0.3459 
    133 H133       35.4640   30.5727    5.3144 H         1 UNK         0.3459 
    134 H134       32.1649   29.5995    6.2003 H         1 UNK         0.0616 
    135 H135       32.1992   29.3786    7.9287 H         1 UNK         0.0616 
    136 H136       30.1378   27.8347    5.2069 H         1 UNK         0.0634 
    137 H137       31.7369   27.9679    4.5168 H         1 UNK         0.0634 
@<TRIPOS>BOND
     1    1    2 1    
     2    1   72 1    
     3    1   73 1    
     4    1   74 1    
     5    2    3 2    
     6    2    4 am   BACKBONE|DICT|INTERRES
     7    4    5 1    
     8    4   75 1    
     9    5    6 1    
    10    5   35 1    
    11    5   76 1    
    12    6    7 1    
    13    6   77 1    
    14    6   78 1    
    15    7    8 1    
    16    8    9 1    
    17    8   79 1    
    18    8   80 1    
    19    9   10 ar   
    20    9   14 ar   
    21   10   11 ar   
    22   10   81 1    
    23   11   12 ar   
    24   11   71 1    
    25   12   13 ar   
    26   12   82 1    
    27   13   14 ar   
    28   13   15 1    
    29   14   83 1    
    30   15   16 1    
    31   15   84 1    
    32   15   85 1    
    33   16   17 1    
    34   17   18 1    
    35   17   86 1    
    36   17   87 1    
    37   18   19 1    
    38   18   37 1    
    39   18   88 1    
    40   19   20 am   BACKBONE|DICT|INTERRES
    41   19   89 1    
    42   20   21 2    
    43   20   22 1    
    44   22   23 1    
    45   22   24 1    
    46   22   90 1    
    47   23   91 1    
    48   23   92 1    
    49   23   93 1    
    50   24   25 am   BACKBONE|DICT|INTERRES
    51   24   94 1    
    52   25   26 2    
    53   25   27 1    
    54   27   28 1    
    55   27   29 1    
    56   27   95 1    
    57   28   96 1    
    58   28   97 1    
    59   28   98 1    
    60   29   30 am   BACKBONE|DICT|INTERRES
    61   29   99 1    
    62   30   31 2    
    63   30   32 1    
    64   32   33 1    
    65   32   34 1    
    66   32  100 1    
    67   33  101 1    
    68   33  102 1    
    69   33  103 1    
    70   34   35 am   BACKBONE|DICT|INTERRES
    71   34  104 1    
    72   35   36 2    
    73   37   38 2    
    74   37   39 am   BACKBONE|DICT|INTERRES
    75   39   40 1    
    76   39  105 1    
    77   40   41 1    
    78   40   42 1    
    79   40  106 1    
    80   41  107 1    
    81   41  108 1    
    82   41  109 1    
    83   42   43 2    
    84   42   44 am   BACKBONE|DICT|INTERRES
    85   44   45 1    
    86   44  110 1    
    87   45   46 1    
    88   45   47 1    
    89   45  111 1    
    90   46  112 1    
    91   46  113 1    
    92   46  114 1    
    93   47   48 2    
    94   47   49 am   BACKBONE|DICT|INTERRES
    95   49   50 1    
    96   49  115 1    
    97   50   51 1    
    98   50   52 1    
    99   50  116 1    
   100   51  117 1    
   101   51  118 1    
   102   51  119 1    
   103   52   53 2    
   104   52   54 am   BACKBONE|DICT|INTERRES
   105   54   55 1    
   106   54  120 1    
   107   55   56 1    
   108   55   57 1    
   109   55  121 1    
   110   56  122 1    
   111   56  123 1    
   112   56  124 1    
   113   57   58 2    
   114   57   59 am   BACKBONE|DICT|INTERRES
   115   59   60 1    
   116   59  125 1    
   117   60   61 1    
   118   60   62 1    
   119   60  126 1    
   120   61  127 1    
   121   61  128 1    
   122   61  129 1    
   123   62   63 2    
   124   62   64 am   BACKBONE|DICT|INTERRES
   125   64   65 1    
   126   64  130 1    
   127   65   66 1    
   128   65   69 1    
   129   65  131 1    
   130   66   67 am   BACKBONE|DICT|INTERRES
   131   66   68 2    
   132   67  132 1    
   133   67  133 1    
   134   69   70 1    
   135   69  134 1    
   136   69  135 1    
   137   70   71 1    
   138   71  136 1    
   139   71  137 1    
@<TRIPOS>SUBSTRUCTURE
     1 UNK         1 GROUP             0       ****    0 ROOT    
