@<TRIPOS>MOLECULE
3R136
137   139    1
SMALL
USER_CHARGES


@<TRIPOS>ATOM
      1 CA         27.8692   21.6899   -2.2510 C.3       0 UNK        -0.1979 
      2 C          28.4710   21.5793   -0.8573 C.2       0 UNK         0.4864 
      3 O          28.3136   20.5438   -0.2092 O.2       0 UNK        -0.5359 
      4 N          29.1585   22.6405   -0.4130 N.am      1 UNK        -0.4318 
      5 CA         29.7706   22.8280    0.9079 C.3       1 UNK         0.0824 
      6 C6         30.7128   21.6635    1.3265 C.3       12 UNK        -0.0944 
      7 S7         32.0431   22.1540    2.4779 S.3       12 UNK        -0.2672 
      8 C8         33.3892   22.6291    1.3425 C.3       12 UNK         0.0333 
      9 C9         33.1669   24.0313    0.7990 C.ar      12 UNK        -0.0807 
     10 C10        33.4826   25.1404    1.5891 C.ar      12 UNK        -0.0894 
     11 C11        33.2017   26.4335    1.1399 C.ar      12 UNK        -0.0804 
     12 C12        32.6152   26.6135   -0.1147 C.ar      12 UNK        -0.0824 
     13 C13        32.2811   25.5109   -0.9058 C.ar      12 UNK        -0.0762 
     14 C14        32.5922   24.2227   -0.4612 C.ar      12 UNK        -0.0782 
     15 C15        31.5174   25.7082   -2.2054 C.3       12 UNK         0.0230 
     16 S16        29.7235   25.5094   -1.9394 S.3       12 UNK        -0.2608 
     17 C17        29.3614   26.9090   -0.8253 C.3       12 UNK        -0.0989 
     18 CA         27.8823   27.3524   -0.9175 C.3       5 UNK         0.0716 
     19 N          26.9580   26.3756   -0.3385 N.am      5 UNK        -0.4135 
     20 C          25.8018   25.9980   -0.9026 C.2       4 UNK         0.5031 
     21 O          25.4380   26.3449   -2.0272 O.2       4 UNK        -0.5229 
     22 CA         24.8741   25.0874   -0.0757 C.3       4 UNK         0.0329 
     23 CB         25.0670   23.6154   -0.4696 C.3       4 UNK        -0.2001 
     24 N          25.0603   25.2442    1.3697 N.am      4 UNK        -0.4303 
     25 C          24.6741   26.3306    2.0572 C.2       3 UNK         0.5044 
     26 O          24.0308   27.2535    1.5571 O.2       3 UNK        -0.5152 
     27 CA         25.0736   26.4301    3.5430 C.3       3 UNK         0.0319 
     28 CB         23.8576   26.1592    4.4438 C.3       3 UNK        -0.2001 
     29 N          26.1752   25.5558    3.9568 N.am      3 UNK        -0.4354 
     30 C          27.4217   25.5719    3.4663 C.2       2 UNK         0.4964 
     31 O          27.7853   26.3091    2.5441 O.2       2 UNK        -0.5047 
     32 CA         28.4273   24.5685    4.0703 C.3       2 UNK         0.0288 
     33 CB         27.7976   23.5145    5.0108 C.3       2 UNK        -0.2113 
     34 N          29.2145   23.9157    3.0189 N.am      2 UNK        -0.4145 
     35 C          28.7334   23.2159    1.9804 C.2       1 UNK         0.5006 
     36 O          27.5393   22.9387    1.8386 O.2       1 UNK        -0.5103 
     37 C          27.6642   28.7152   -0.2387 C.2       5 UNK         0.5055 
     38 O          27.4037   29.6938   -0.9398 O.2       5 UNK        -0.5220 
     39 N          27.7612   28.7488    1.1022 N.am      6 UNK        -0.4450 
     40 CA         27.5854   29.9179    1.9768 C.3       6 UNK         0.0367 
     41 CB         26.0922   30.2983    2.0629 C.3       6 UNK        -0.1929 
     42 C          28.4801   31.1196    1.6001 C.2       6 UNK         0.5070 
     43 O          28.0112   32.2603    1.5897 O.2       6 UNK        -0.5237 
     44 N          29.7490   30.8426    1.2719 N.am      7 UNK        -0.4739 
     45 CA         30.7505   31.8519    0.9181 C.3       7 UNK         0.0276 
     46 CB         31.8860   31.1730    0.1302 C.3       7 UNK        -0.1927 
     47 C          31.2952   32.5786    2.1620 C.2       7 UNK         0.5013 
     48 O          31.0312   32.1649    3.2942 O.2       7 UNK        -0.5193 
     49 N          32.0802   33.6397    1.9303 N.am      8 UNK        -0.4253 
     50 CA         32.7784   34.4198    2.9585 C.3       8 UNK         0.0242 
     51 CB         33.1532   35.7947    2.3733 C.3       8 UNK        -0.2000 
     52 C          34.0002   33.6592    3.5150 C.2       8 UNK         0.4948 
     53 O          35.1424   34.0721    3.3038 O.2       8 UNK        -0.5275 
     54 N          33.7285   32.5414    4.1909 N.am      9 UNK        -0.4246 
     55 CA         34.6808   31.6056    4.7775 C.3       9 UNK         0.0261 
     56 CB         35.2801   30.7148    3.6685 C.3       9 UNK        -0.1959 
     57 C          33.9494   30.7901    5.8561 C.2       9 UNK         0.5033 
     58 O          32.8040   31.1049    6.1926 O.2       9 UNK        -0.5390 
     59 N          34.6047   29.7382    6.3681 N.am      10 UNK        -0.4215 
     60 CA         34.0903   28.8294    7.4041 C.3       10 UNK         0.0240 
     61 CB         35.1786   27.8007    7.7533 C.3       10 UNK        -0.1982 
     62 C          32.7694   28.1127    7.0531 C.2       10 UNK         0.4970 
     63 O          32.0579   27.6897    7.9651 O.2       10 UNK        -0.4916 
     64 N          32.4607   28.0014    5.7555 N.am      11 UNK        -0.4279 
     65 CA         31.1710   27.5369    5.2284 C.3       11 UNK         0.1003 
     66 C          29.9784   28.5163    5.4464 C.2       11 UNK         0.5709 
     67 N          30.1968   29.7707    5.8234 N.am      11 UNK        -0.7358 
     68 O          28.8278   28.1178    5.2879 O.2       11 UNK        -0.4999 
     69 C69        31.2962   27.0918    3.7482 C.3       12 UNK        -0.0954 
     70 S70        31.9474   28.3907    2.6427 S.3       12 UNK        -0.2268 
     71 C71        33.4866   27.6368    2.0248 C.3       12 UNK         0.0203 
     72 H72        26.7996   21.4851   -2.2151 H         1 UNK         0.0888 
     73 H73        28.0081   22.6832   -2.6783 H         1 UNK         0.0888 
     74 H74        28.3331   20.9643   -2.9186 H         1 UNK         0.0888 
     75 H75        29.2213   23.4548   -1.0122 H         1 UNK         0.3017 
     76 H76        30.3725   23.7248    0.7803 H         1 UNK         0.0873 
     77 H77        31.1828   21.2262    0.4444 H         1 UNK         0.0745 
     78 H78        30.1422   20.8524    1.7827 H         1 UNK         0.0745 
     79 H79        33.4771   21.9020    0.5338 H         1 UNK         0.0705 
     80 H80        34.3352   22.5962    1.8851 H         1 UNK         0.0705 
     81 H81        33.9146   24.9923    2.5696 H         1 UNK         0.1334 
     82 H82        32.3754   27.6131   -0.4503 H         1 UNK         0.1417 
     83 H83        32.3227   23.3671   -1.0659 H         1 UNK         0.1562 
     84 H84        31.8511   24.9802   -2.9464 H         1 UNK         0.0748 
     85 H85        31.7207   26.6927   -2.6299 H         1 UNK         0.0748 
     86 H86        30.0163   27.7377   -1.1020 H         1 UNK         0.0940 
     87 H87        29.6290   26.6305    0.1964 H         1 UNK         0.0940 
     88 H88        27.6546   27.4933   -1.9767 H         1 UNK         0.0703 
     89 H89        27.1553   26.0784    0.6102 H         1 UNK         0.3081 
     90 H90        23.8453   25.3648   -0.3157 H         1 UNK         0.0719 
     91 H91        24.8637   23.4666   -1.5309 H         1 UNK         0.0809 
     92 H92        26.0868   23.2816   -0.2858 H         1 UNK         0.0809 
     93 H93        24.3937   22.9617    0.0849 H         1 UNK         0.0809 
     94 H94        25.5899   24.5251    1.8456 H         1 UNK         0.2990 
     95 H95        25.4019   27.4567    3.7158 H         1 UNK         0.0690 
     96 H96        24.0939   26.3316    5.4940 H         1 UNK         0.0788 
     97 H97        23.5009   25.1335    4.3417 H         1 UNK         0.0788 
     98 H98        23.0272   26.8197    4.1896 H         1 UNK         0.0788 
     99 H99        25.9684   24.8942    4.6911 H         1 UNK         0.2993 
    100 H100       29.1239   25.1609    4.6636 H         1 UNK         0.0949 
    101 H101       27.3374   23.9816    5.8824 H         1 UNK         0.0767 
    102 H102       27.0367   22.9151    4.5090 H         1 UNK         0.0767 
    103 H103       28.5565   22.8283    5.3874 H         1 UNK         0.0767 
    104 H104       30.2102   24.0875    3.0463 H         1 UNK         0.3013 
    105 H105       27.9462   27.8767    1.5953 H         1 UNK         0.3121 
    106 H106       27.9041   29.6040    2.9723 H         1 UNK         0.0774 
    107 H107       25.4818   29.4509    2.3698 H         1 UNK         0.0815 
    108 H108       25.9308   31.0918    2.7934 H         1 UNK         0.0815 
    109 H109       25.7115   30.6535    1.1047 H         1 UNK         0.0815 
    110 H110       30.0772   29.8925    1.3685 H         1 UNK         0.2987 
    111 H111       30.2770   32.5951    0.2724 H         1 UNK         0.0949 
    112 H112       31.4984   30.5840   -0.7013 H         1 UNK         0.0806 
    113 H113       32.5677   31.9114   -0.2932 H         1 UNK         0.0806 
    114 H114       32.4819   30.5136    0.7603 H         1 UNK         0.0806 
    115 H115       32.2716   33.8971    0.9728 H         1 UNK         0.3010 
    116 H116       32.0940   34.5901    3.7928 H         1 UNK         0.0829 
    117 H117       33.6569   36.4114    3.1190 H         1 UNK         0.0813 
    118 H118       33.8249   35.7027    1.5188 H         1 UNK         0.0813 
    119 H119       32.2684   36.3421    2.0477 H         1 UNK         0.0813 
    120 H120       32.7518   32.2824    4.3207 H         1 UNK         0.3038 
    121 H121       35.4771   32.1689    5.2682 H         1 UNK         0.0769 
    122 H122       36.0305   30.0266    4.0577 H         1 UNK         0.0811 
    123 H123       35.7732   31.3133    2.9024 H         1 UNK         0.0811 
    124 H124       34.5088   30.1233    3.1761 H         1 UNK         0.0811 
    125 H125       35.5422   29.5538    6.0409 H         1 UNK         0.3204 
    126 H126       33.8942   29.4334    8.2924 H         1 UNK         0.0748 
    127 H127       34.8420   27.1274    8.5432 H         1 UNK         0.0771 
    128 H128       35.4436   27.1854    6.8924 H         1 UNK         0.0771 
    129 H129       36.0858   28.2869    8.1127 H         1 UNK         0.0771 
    130 H130       33.0906   28.3950    5.0742 H         1 UNK         0.2980 
    131 H131       30.9079   26.6438    5.7983 H         1 UNK         0.0545 
    132 H132       31.1389   30.1319    5.9376 H         1 UNK         0.3459 
    133 H133       29.4110   30.3846    5.9583 H         1 UNK         0.3459 
    134 H134       31.9379   26.2125    3.6969 H         1 UNK         0.0616 
    135 H135       30.3332   26.7728    3.3504 H         1 UNK         0.0616 
    136 H136       34.0386   28.3806    1.4489 H         1 UNK         0.0634 
    137 H137       34.1221   27.3642    2.8689 H         1 UNK         0.0634 
@<TRIPOS>BOND
     1    1    2 1    
     2    1   72 1    
     3    1   73 1    
     4    1   74 1    
     5    2    3 2    
     6    2    4 am   BACKBONE|DICT|INTERRES
     7    4    5 1    
     8    4   75 1    
     9    5    6 1    
    10    5   35 1    
    11    5   76 1    
    12    6    7 1    
    13    6   77 1    
    14    6   78 1    
    15    7    8 1    
    16    8    9 1    
    17    8   79 1    
    18    8   80 1    
    19    9   10 ar   
    20    9   14 ar   
    21   10   11 ar   
    22   10   81 1    
    23   11   12 ar   
    24   11   71 1    
    25   12   13 ar   
    26   12   82 1    
    27   13   14 ar   
    28   13   15 1    
    29   14   83 1    
    30   15   16 1    
    31   15   84 1    
    32   15   85 1    
    33   16   17 1    
    34   17   18 1    
    35   17   86 1    
    36   17   87 1    
    37   18   19 1    
    38   18   37 1    
    39   18   88 1    
    40   19   20 am   BACKBONE|DICT|INTERRES
    41   19   89 1    
    42   20   21 2    
    43   20   22 1    
    44   22   23 1    
    45   22   24 1    
    46   22   90 1    
    47   23   91 1    
    48   23   92 1    
    49   23   93 1    
    50   24   25 am   BACKBONE|DICT|INTERRES
    51   24   94 1    
    52   25   26 2    
    53   25   27 1    
    54   27   28 1    
    55   27   29 1    
    56   27   95 1    
    57   28   96 1    
    58   28   97 1    
    59   28   98 1    
    60   29   30 am   BACKBONE|DICT|INTERRES
    61   29   99 1    
    62   30   31 2    
    63   30   32 1    
    64   32   33 1    
    65   32   34 1    
    66   32  100 1    
    67   33  101 1    
    68   33  102 1    
    69   33  103 1    
    70   34   35 am   BACKBONE|DICT|INTERRES
    71   34  104 1    
    72   35   36 2    
    73   37   38 2    
    74   37   39 am   BACKBONE|DICT|INTERRES
    75   39   40 1    
    76   39  105 1    
    77   40   41 1    
    78   40   42 1    
    79   40  106 1    
    80   41  107 1    
    81   41  108 1    
    82   41  109 1    
    83   42   43 2    
    84   42   44 am   BACKBONE|DICT|INTERRES
    85   44   45 1    
    86   44  110 1    
    87   45   46 1    
    88   45   47 1    
    89   45  111 1    
    90   46  112 1    
    91   46  113 1    
    92   46  114 1    
    93   47   48 2    
    94   47   49 am   BACKBONE|DICT|INTERRES
    95   49   50 1    
    96   49  115 1    
    97   50   51 1    
    98   50   52 1    
    99   50  116 1    
   100   51  117 1    
   101   51  118 1    
   102   51  119 1    
   103   52   53 2    
   104   52   54 am   BACKBONE|DICT|INTERRES
   105   54   55 1    
   106   54  120 1    
   107   55   56 1    
   108   55   57 1    
   109   55  121 1    
   110   56  122 1    
   111   56  123 1    
   112   56  124 1    
   113   57   58 2    
   114   57   59 am   BACKBONE|DICT|INTERRES
   115   59   60 1    
   116   59  125 1    
   117   60   61 1    
   118   60   62 1    
   119   60  126 1    
   120   61  127 1    
   121   61  128 1    
   122   61  129 1    
   123   62   63 2    
   124   62   64 am   BACKBONE|DICT|INTERRES
   125   64   65 1    
   126   64  130 1    
   127   65   66 1    
   128   65   69 1    
   129   65  131 1    
   130   66   67 am   BACKBONE|DICT|INTERRES
   131   66   68 2    
   132   67  132 1    
   133   67  133 1    
   134   69   70 1    
   135   69  134 1    
   136   69  135 1    
   137   70   71 1    
   138   71  136 1    
   139   71  137 1    
@<TRIPOS>SUBSTRUCTURE
     1 UNK         1 GROUP             0       ****    0 ROOT    
