@<TRIPOS>MOLECULE
3R136
137   139    1
SMALL
USER_CHARGES


@<TRIPOS>ATOM
      1 CA         32.9493   26.4551    0.8348 C.3       0 UNK        -0.1979 
      2 C          31.6285   25.7098    0.7181 C.2       0 UNK         0.4864 
      3 O          30.5673   26.3041    0.9140 O.2       0 UNK        -0.5359 
      4 N          31.6769   24.4138    0.3822 N.am      1 UNK        -0.4318 
      5 CA         30.5296   23.4953    0.2988 C.3       1 UNK         0.0824 
      6 C6         30.9611   22.0047    0.4275 C.3       12 UNK        -0.0944 
      7 S7         32.1688   21.6656    1.7557 S.3       12 UNK        -0.2672 
      8 C8         31.0907   21.3492    3.1918 C.3       12 UNK         0.0333 
      9 C9         30.3685   22.5995    3.6823 C.ar      12 UNK        -0.0807 
     10 C10        31.0693   23.7930    3.8894 C.ar      12 UNK        -0.0894 
     11 C11        30.4042   24.9402    4.3264 C.ar      12 UNK        -0.0804 
     12 C12        29.0379   24.8806    4.6043 C.ar      12 UNK        -0.0824 
     13 C13        28.3247   23.6936    4.4124 C.ar      12 UNK        -0.0762 
     14 C14        28.9947   22.5586    3.9431 C.ar      12 UNK        -0.0782 
     15 C15        26.8375   23.6266    4.7307 C.3       12 UNK         0.0230 
     16 S16        25.8133   24.2804    3.3734 S.3       12 UNK        -0.2608 
     17 C17        25.8784   26.0802    3.6806 C.3       12 UNK        -0.0989 
     18 CA         26.4847   26.8653    2.4814 C.3       5 UNK         0.0716 
     19 N          25.6917   26.7200    1.2476 N.am      5 UNK        -0.4135 
     20 C          24.4164   27.1028    1.0633 C.2       4 UNK         0.5031 
     21 O          23.7349   27.6636    1.9221 O.2       4 UNK        -0.5229 
     22 CA         23.7949   26.8598   -0.3230 C.3       4 UNK         0.0329 
     23 CB         23.7070   28.1814   -1.1050 C.3       4 UNK        -0.2001 
     24 N          24.5280   25.8845   -1.1304 N.am      4 UNK        -0.4303 
     25 C          24.4793   24.5555   -0.9901 C.2       3 UNK         0.5044 
     26 O          23.7864   23.9835   -0.1488 O.2       3 UNK        -0.5152 
     27 CA         25.3486   23.7179   -1.9485 C.3       3 UNK         0.0319 
     28 CB         24.6766   23.5889   -3.3292 C.3       3 UNK        -0.2001 
     29 N          26.7474   24.1597   -2.0768 N.am      3 UNK        -0.4354 
     30 C          27.2450   25.3092   -2.5564 C.2       2 UNK         0.4964 
     31 O          26.5437   26.2340   -2.9709 O.2       2 UNK        -0.5047 
     32 CA         28.7805   25.4606   -2.5542 C.3       2 UNK         0.0288 
     33 CB         29.2295   26.9118   -2.8149 C.3       2 UNK        -0.2113 
     34 N          29.4189   24.9986   -1.3177 N.am      2 UNK        -0.4145 
     35 C          29.6662   23.7302   -0.9674 C.2       1 UNK         0.5006 
     36 O          29.2462   22.7708   -1.6182 O.2       1 UNK        -0.5103 
     37 C          26.7802   28.3460    2.8362 C.2       5 UNK         0.5055 
     38 O          27.0970   28.6484    3.9878 O.2       5 UNK        -0.5220 
     39 N          26.6718   29.2481    1.8495 N.am      6 UNK        -0.4450 
     40 CA         26.7646   30.6997    2.0255 C.3       6 UNK         0.0367 
     41 CB         25.9482   31.3804    0.9139 C.3       6 UNK        -0.1929 
     42 C          28.2044   31.2409    2.0350 C.2       6 UNK         0.5070 
     43 O          28.4082   32.3868    2.4393 O.2       6 UNK        -0.5237 
     44 N          29.1797   30.4406    1.5829 N.am      7 UNK        -0.4739 
     45 CA         30.5899   30.8182    1.4372 C.3       7 UNK         0.0276 
     46 CB         31.2510   29.8809    0.4111 C.3       7 UNK        -0.1927 
     47 C          31.3448   30.8454    2.7814 C.2       7 UNK         0.5013 
     48 O          32.3514   30.1521    2.9400 O.2       7 UNK        -0.5193 
     49 N          30.8601   31.6635    3.7250 N.am      8 UNK        -0.4253 
     50 CA         31.3851   31.8291    5.0866 C.3       8 UNK         0.0242 
     51 CB         30.5378   32.8700    5.8346 C.3       8 UNK        -0.2000 
     52 C          32.8774   32.2008    5.1555 C.2       8 UNK         0.4948 
     53 O          33.5679   31.7525    6.0709 O.2       8 UNK        -0.5275 
     54 N          33.3556   32.9713    4.1678 N.am      9 UNK        -0.4246 
     55 CA         34.7636   33.3431    4.0032 C.3       9 UNK         0.0261 
     56 CB         34.8802   34.4193    2.9115 C.3       9 UNK        -0.1959 
     57 C          35.6850   32.1503    3.6839 C.2       9 UNK         0.5033 
     58 O          36.8568   32.1849    4.0623 O.2       9 UNK        -0.5390 
     59 N          35.1501   31.1241    3.0069 N.am      10 UNK        -0.4215 
     60 CA         35.8401   29.8600    2.7453 C.3       10 UNK         0.0240 
     61 CB         35.3502   29.2706    1.4123 C.3       10 UNK        -0.1982 
     62 C          35.6284   28.8644    3.8969 C.2       10 UNK         0.4970 
     63 O          36.5546   28.1227    4.2257 O.2       10 UNK        -0.4916 
     64 N          34.4234   28.8690    4.4839 N.am      11 UNK        -0.4279 
     65 CA         34.0389   28.0552    5.6459 C.3       11 UNK         0.1003 
     66 C          34.8724   28.3495    6.9240 C.2       11 UNK         0.5709 
     67 N          35.1112   29.6124    7.2560 N.am      11 UNK        -0.7358 
     68 O          35.3084   27.4290    7.6113 O.2       11 UNK        -0.4999 
     69 C69        32.5120   28.1613    5.9252 C.3       12 UNK        -0.0954 
     70 S70        31.7294   26.5355    6.1587 S.3       12 UNK        -0.2268 
     71 C71        31.1492   26.2554    4.4615 C.3       12 UNK         0.0203 
     72 H72        33.7987   25.7732    0.8702 H         1 UNK         0.0888 
     73 H73        33.0795   27.1219   -0.0170 H         1 UNK         0.0888 
     74 H74        32.9620   27.0573    1.7426 H         1 UNK         0.0888 
     75 H75        32.5750   23.9822    0.2164 H         1 UNK         0.3017 
     76 H76        29.8756   23.7182    1.1441 H         1 UNK         0.0873 
     77 H77        30.0867   21.3680    0.5757 H         1 UNK         0.0745 
     78 H78        31.4229   21.6660   -0.5021 H         1 UNK         0.0745 
     79 H79        31.7025   20.9617    4.0074 H         1 UNK         0.0705 
     80 H80        30.3822   20.5597    2.9361 H         1 UNK         0.0705 
     81 H81        32.1304   23.8359    3.6852 H         1 UNK         0.1334 
     82 H82        28.5377   25.7666    4.9664 H         1 UNK         0.1417 
     83 H83        28.4457   21.6389    3.7915 H         1 UNK         0.1562 
     84 H84        26.6232   24.1623    5.6568 H         1 UNK         0.0748 
     85 H85        26.5437   22.5918    4.9134 H         1 UNK         0.0748 
     86 H86        26.4354   26.2662    4.5977 H         1 UNK         0.0940 
     87 H87        24.8669   26.4250    3.8985 H         1 UNK         0.0940 
     88 H88        27.4614   26.4287    2.2640 H         1 UNK         0.0703 
     89 H89        26.1560   26.2589    0.4796 H         1 UNK         0.3081 
     90 H90        22.7809   26.4862   -0.1648 H         1 UNK         0.0719 
     91 H91        23.1920   28.0442   -2.0560 H         1 UNK         0.0809 
     92 H92        24.6943   28.5940   -1.3161 H         1 UNK         0.0809 
     93 H93        23.1510   28.9340   -0.5437 H         1 UNK         0.0809 
     94 H94        25.1407   26.2455   -1.8607 H         1 UNK         0.2990 
     95 H95        25.4012   22.7157   -1.5196 H         1 UNK         0.0690 
     96 H96        25.2365   22.9176   -3.9803 H         1 UNK         0.0788 
     97 H97        24.5909   24.5511   -3.8351 H         1 UNK         0.0788 
     98 H98        23.6687   23.1823   -3.2350 H         1 UNK         0.0788 
     99 H99        27.4394   23.4763   -1.7813 H         1 UNK         0.2993 
    100 H100       29.1510   24.8464   -3.3778 H         1 UNK         0.0949 
    101 H101       28.8438   27.2800   -3.7666 H         1 UNK         0.0767 
    102 H102       28.8781   27.5880   -2.0343 H         1 UNK         0.0767 
    103 H103       30.3161   26.9888   -2.8594 H         1 UNK         0.0767 
    104 H104       29.7544   25.7145   -0.6770 H         1 UNK         0.3013 
    105 H105       26.4234   28.9194    0.9285 H         1 UNK         0.3121 
    106 H106       26.3148   30.9657    2.9847 H         1 UNK         0.0774 
    107 H107       25.9540   32.4649    1.0328 H         1 UNK         0.0815 
    108 H108       26.3487   31.1597   -0.0763 H         1 UNK         0.0815 
    109 H109       24.9059   31.0609    0.9346 H         1 UNK         0.0815 
    110 H110       28.9348   29.5000    1.3103 H         1 UNK         0.2987 
    111 H111       30.6352   31.8310    1.0305 H         1 UNK         0.0949 
    112 H112       30.7338   29.9087   -0.5481 H         1 UNK         0.0806 
    113 H113       32.2872   30.1672    0.2271 H         1 UNK         0.0806 
    114 H114       31.2540   28.8499    0.7613 H         1 UNK         0.0806 
    115 H115       30.0104   32.1713    3.4920 H         1 UNK         0.3010 
    116 H116       31.2664   30.8719    5.5960 H         1 UNK         0.0829 
    117 H117       29.4922   32.5657    5.8882 H         1 UNK         0.0813 
    118 H118       30.8895   32.9971    6.8596 H         1 UNK         0.0813 
    119 H119       30.5784   33.8470    5.3514 H         1 UNK         0.0813 
    120 H120       32.7095   33.3010    3.4654 H         1 UNK         0.3038 
    121 H121       35.1050   33.7749    4.9465 H         1 UNK         0.0769 
    122 H122       34.5318   34.0548    1.9443 H         1 UNK         0.0811 
    123 H123       35.9168   34.7357    2.7858 H         1 UNK         0.0811 
    124 H124       34.3017   35.3077    3.1655 H         1 UNK         0.0811 
    125 H125       34.1627   31.1499    2.7803 H         1 UNK         0.3204 
    126 H126       36.9134   30.0416    2.6551 H         1 UNK         0.0748 
    127 H127       35.8400   28.3189    1.2017 H         1 UNK         0.0771 
    128 H128       34.2757   29.0908    1.4185 H         1 UNK         0.0771 
    129 H129       35.5706   29.9398    0.5806 H         1 UNK         0.0771 
    130 H130       33.6994   29.4649    4.0961 H         1 UNK         0.2980 
    131 H131       34.2702   27.0274    5.3588 H         1 UNK         0.0545 
    132 H132       34.6844   30.3727    6.7326 H         1 UNK         0.3459 
    133 H133       35.6553   29.8131    8.0792 H         1 UNK         0.3459 
    134 H134       31.9982   28.6608    5.1042 H         1 UNK         0.0616 
    135 H135       32.2952   28.7769    6.8006 H         1 UNK         0.0616 
    136 H136       32.0072   26.2720    3.7893 H         1 UNK         0.0634 
    137 H137       30.5003   27.0770    4.1524 H         1 UNK         0.0634 
@<TRIPOS>BOND
     1    1    2 1    
     2    1   72 1    
     3    1   73 1    
     4    1   74 1    
     5    2    3 2    
     6    2    4 am   BACKBONE|DICT|INTERRES
     7    4    5 1    
     8    4   75 1    
     9    5    6 1    
    10    5   35 1    
    11    5   76 1    
    12    6    7 1    
    13    6   77 1    
    14    6   78 1    
    15    7    8 1    
    16    8    9 1    
    17    8   79 1    
    18    8   80 1    
    19    9   10 ar   
    20    9   14 ar   
    21   10   11 ar   
    22   10   81 1    
    23   11   12 ar   
    24   11   71 1    
    25   12   13 ar   
    26   12   82 1    
    27   13   14 ar   
    28   13   15 1    
    29   14   83 1    
    30   15   16 1    
    31   15   84 1    
    32   15   85 1    
    33   16   17 1    
    34   17   18 1    
    35   17   86 1    
    36   17   87 1    
    37   18   19 1    
    38   18   37 1    
    39   18   88 1    
    40   19   20 am   BACKBONE|DICT|INTERRES
    41   19   89 1    
    42   20   21 2    
    43   20   22 1    
    44   22   23 1    
    45   22   24 1    
    46   22   90 1    
    47   23   91 1    
    48   23   92 1    
    49   23   93 1    
    50   24   25 am   BACKBONE|DICT|INTERRES
    51   24   94 1    
    52   25   26 2    
    53   25   27 1    
    54   27   28 1    
    55   27   29 1    
    56   27   95 1    
    57   28   96 1    
    58   28   97 1    
    59   28   98 1    
    60   29   30 am   BACKBONE|DICT|INTERRES
    61   29   99 1    
    62   30   31 2    
    63   30   32 1    
    64   32   33 1    
    65   32   34 1    
    66   32  100 1    
    67   33  101 1    
    68   33  102 1    
    69   33  103 1    
    70   34   35 am   BACKBONE|DICT|INTERRES
    71   34  104 1    
    72   35   36 2    
    73   37   38 2    
    74   37   39 am   BACKBONE|DICT|INTERRES
    75   39   40 1    
    76   39  105 1    
    77   40   41 1    
    78   40   42 1    
    79   40  106 1    
    80   41  107 1    
    81   41  108 1    
    82   41  109 1    
    83   42   43 2    
    84   42   44 am   BACKBONE|DICT|INTERRES
    85   44   45 1    
    86   44  110 1    
    87   45   46 1    
    88   45   47 1    
    89   45  111 1    
    90   46  112 1    
    91   46  113 1    
    92   46  114 1    
    93   47   48 2    
    94   47   49 am   BACKBONE|DICT|INTERRES
    95   49   50 1    
    96   49  115 1    
    97   50   51 1    
    98   50   52 1    
    99   50  116 1    
   100   51  117 1    
   101   51  118 1    
   102   51  119 1    
   103   52   53 2    
   104   52   54 am   BACKBONE|DICT|INTERRES
   105   54   55 1    
   106   54  120 1    
   107   55   56 1    
   108   55   57 1    
   109   55  121 1    
   110   56  122 1    
   111   56  123 1    
   112   56  124 1    
   113   57   58 2    
   114   57   59 am   BACKBONE|DICT|INTERRES
   115   59   60 1    
   116   59  125 1    
   117   60   61 1    
   118   60   62 1    
   119   60  126 1    
   120   61  127 1    
   121   61  128 1    
   122   61  129 1    
   123   62   63 2    
   124   62   64 am   BACKBONE|DICT|INTERRES
   125   64   65 1    
   126   64  130 1    
   127   65   66 1    
   128   65   69 1    
   129   65  131 1    
   130   66   67 am   BACKBONE|DICT|INTERRES
   131   66   68 2    
   132   67  132 1    
   133   67  133 1    
   134   69   70 1    
   135   69  134 1    
   136   69  135 1    
   137   70   71 1    
   138   71  136 1    
   139   71  137 1    
@<TRIPOS>SUBSTRUCTURE
     1 UNK         1 GROUP             0       ****    0 ROOT    
