@<TRIPOS>MOLECULE
3R136
137   139    1
SMALL
USER_CHARGES


@<TRIPOS>ATOM
      1 CA         26.8513   22.0543   -2.8565 C.3       0 UNK        -0.1979 
      2 C          28.0668   22.3824   -2.0028 C.2       0 UNK         0.4864 
      3 O          27.9965   23.3078   -1.1942 O.2       0 UNK        -0.5359 
      4 N          29.1665   21.6362   -2.1931 N.am      1 UNK        -0.4318 
      5 CA         30.4679   21.7334   -1.5130 C.3       1 UNK         0.0824 
      6 C6         30.5587   20.8768   -0.2131 C.3       12 UNK        -0.0944 
      7 S7         29.4895   21.3863    1.1812 S.3       12 UNK        -0.2672 
      8 C8         30.6929   21.4895    2.5524 C.3       12 UNK         0.0333 
      9 C9         30.2541   22.4276    3.6736 C.ar      12 UNK        -0.0807 
     10 C10        31.2005   23.2481    4.2964 C.ar      12 UNK        -0.0894 
     11 C11        30.8310   24.1256    5.3204 C.ar      12 UNK        -0.0804 
     12 C12        29.4943   24.1635    5.7359 C.ar      12 UNK        -0.0824 
     13 C13        28.5391   23.3425    5.1313 C.ar      12 UNK        -0.0762 
     14 C14        28.9262   22.4708    4.1105 C.ar      12 UNK        -0.0782 
     15 C15        27.0883   23.3808    5.5833 C.3       12 UNK         0.0230 
     16 S16        26.0126   24.1099    4.3102 S.3       12 UNK        -0.2608 
     17 C17        26.4172   25.8879    4.4295 C.3       12 UNK        -0.0989 
     18 CA         27.3891   26.4049    3.3260 C.3       5 UNK         0.0716 
     19 N          27.0150   25.9961    1.9654 N.am      5 UNK        -0.4135 
     20 C          25.8815   26.2981    1.3154 C.2       4 UNK         0.5031 
     21 O          24.9863   27.0124    1.7719 O.2       4 UNK        -0.5229 
     22 CA         25.7295   25.6661   -0.0817 C.3       4 UNK         0.0329 
     23 CB         24.4460   26.1028   -0.8212 C.3       4 UNK        -0.2001 
     24 N          26.9207   25.8625   -0.9144 N.am      4 UNK        -0.4303 
     25 C          27.4186   27.0250   -1.3617 C.2       3 UNK         0.5044 
     26 O          26.8872   28.1202   -1.1729 O.2       3 UNK        -0.5152 
     27 CA         28.7429   26.9369   -2.1512 C.3       3 UNK         0.0319 
     28 CB         29.3512   28.3173   -2.4742 C.3       3 UNK        -0.2001 
     29 N          29.7604   26.0837   -1.5243 N.am      3 UNK        -0.4354 
     30 C          30.2076   26.1251   -0.2608 C.2       2 UNK         0.4964 
     31 O          29.7562   26.8765    0.6055 O.2       2 UNK        -0.5047 
     32 CA         31.3481   25.1498    0.0942 C.3       2 UNK         0.0288 
     33 CB         31.7561   25.2492    1.5752 C.3       2 UNK        -0.2113 
     34 N          30.9927   23.7614   -0.2023 N.am      2 UNK        -0.4145 
     35 C          30.9903   23.1861   -1.4108 C.2       1 UNK         0.5006 
     36 O          31.3468   23.7703   -2.4370 O.2       1 UNK        -0.5103 
     37 C          27.6029   27.9339    3.4105 C.2       5 UNK         0.5055 
     38 O          27.0564   28.5863    4.3041 O.2       5 UNK        -0.5220 
     39 N          28.3633   28.4931    2.4585 N.am      6 UNK        -0.4450 
     40 CA         28.6098   29.9286    2.3201 C.3       6 UNK         0.0367 
     41 CB         29.1190   30.2200    0.8996 C.3       6 UNK        -0.1929 
     42 C          29.5835   30.4480    3.3887 C.2       6 UNK         0.5070 
     43 O          30.7748   30.6013    3.1143 O.2       6 UNK        -0.5237 
     44 N          29.0620   30.7188    4.5915 N.am      7 UNK        -0.4739 
     45 CA         29.7996   31.2294    5.7561 C.3       7 UNK         0.0276 
     46 CB         28.8467   31.2996    6.9594 C.3       7 UNK        -0.1927 
     47 C          30.4919   32.5887    5.5356 C.2       7 UNK         0.5013 
     48 O          31.4566   32.8981    6.2347 O.2       7 UNK        -0.5193 
     49 N          29.9955   33.3671    4.5662 N.am      8 UNK        -0.4253 
     50 CA         30.5770   34.6343    4.1237 C.3       8 UNK         0.0242 
     51 CB         29.4533   35.5089    3.5401 C.3       8 UNK        -0.2000 
     52 C          31.7147   34.4634    3.0962 C.2       8 UNK         0.4948 
     53 O          32.3468   35.4642    2.7534 O.2       8 UNK        -0.5275 
     54 N          31.9453   33.2405    2.5967 N.am      9 UNK        -0.4246 
     55 CA         32.9174   32.9389    1.5492 C.3       9 UNK         0.0261 
     56 CB         32.2233   32.9730    0.1704 C.3       9 UNK        -0.1959 
     57 C          33.6224   31.6149    1.8743 C.2       9 UNK         0.5033 
     58 O          34.4569   31.5913    2.7791 O.2       9 UNK        -0.5390 
     59 N          33.2959   30.5466    1.1344 N.am      10 UNK        -0.4215 
     60 CA         33.9511   29.2343    1.1695 C.3       10 UNK         0.0240 
     61 CB         33.3178   28.3373    0.0949 C.3       10 UNK        -0.1982 
     62 C          33.9581   28.5217    2.5364 C.2       10 UNK         0.4970 
     63 O          34.9061   27.7853    2.8115 O.2       10 UNK        -0.4916 
     64 N          32.9281   28.7505    3.3588 N.am      11 UNK        -0.4279 
     65 CA         32.8344   28.2795    4.7497 C.3       11 UNK         0.1003 
     66 C          33.2001   29.3983    5.7787 C.2       11 UNK         0.5709 
     67 N          33.6821   30.5642    5.3657 N.am      11 UNK        -0.7358 
     68 O          33.0741   29.2125    6.9855 O.2       11 UNK        -0.4999 
     69 C69        31.4558   27.5950    4.9917 C.3       12 UNK        -0.0954 
     70 S70        31.3474   26.6225    6.5319 S.3       12 UNK        -0.2268 
     71 C71        31.9061   24.9712    5.9991 C.3       12 UNK         0.0203 
     72 H72        26.5629   22.9237   -3.4465 H         1 UNK         0.0888 
     73 H73        27.0415   21.2271   -3.5399 H         1 UNK         0.0888 
     74 H74        26.0109   21.7817   -2.2188 H         1 UNK         0.0888 
     75 H75        29.1273   20.9186   -2.9031 H         1 UNK         0.3017 
     76 H76        31.1612   21.2622   -2.2121 H         1 UNK         0.0873 
     77 H77        30.2962   19.8451   -0.4520 H         1 UNK         0.0745 
     78 H78        31.5982   20.8290    0.1152 H         1 UNK         0.0745 
     79 H79        31.6552   21.8222    2.1607 H         1 UNK         0.0705 
     80 H80        30.8518   20.4914    2.9624 H         1 UNK         0.0705 
     81 H81        32.2345   23.2042    3.9823 H         1 UNK         0.1334 
     82 H82        29.1959   24.8239    6.5381 H         1 UNK         0.1417 
     83 H83        28.1836   21.8335    3.6498 H         1 UNK         0.1562 
     84 H84        26.9773   23.9291    6.5202 H         1 UNK         0.0748 
     85 H85        26.7519   22.3629    5.7855 H         1 UNK         0.0748 
     86 H86        26.8286   26.0968    5.4186 H         1 UNK         0.0940 
     87 H87        25.4718   26.4319    4.3846 H         1 UNK         0.0940 
     88 H88        28.3656   25.9549    3.5128 H         1 UNK         0.0703 
     89 H89        27.6998   25.4365    1.4782 H         1 UNK         0.3081 
     90 H90        25.6557   24.5898    0.0827 H         1 UNK         0.0719 
     91 H91        24.4125   27.1809   -0.9796 H         1 UNK         0.0809 
     92 H92        24.3638   25.6169   -1.7933 H         1 UNK         0.0809 
     93 H93        23.5579   25.8334   -0.2482 H         1 UNK         0.0809 
     94 H94        27.4464   25.0079   -1.1044 H         1 UNK         0.2990 
     95 H95        28.4892   26.4617   -3.0999 H         1 UNK         0.0690 
     96 H96        30.2143   28.2227   -3.1330 H         1 UNK         0.0788 
     97 H97        29.6785   28.8333   -1.5730 H         1 UNK         0.0788 
     98 H98        28.6301   28.9610   -2.9795 H         1 UNK         0.0788 
     99 H99        30.1831   25.3856   -2.1284 H         1 UNK         0.2993 
    100 H100       32.2120   25.4268   -0.5135 H         1 UNK         0.0949 
    101 H101       30.9150   25.0281    2.2323 H         1 UNK         0.0767 
    102 H102       32.5681   24.5628    1.8142 H         1 UNK         0.0767 
    103 H103       32.0987   26.2529    1.8239 H         1 UNK         0.0767 
    104 H104       30.5843   23.2263    0.5543 H         1 UNK         0.3013 
    105 H105       28.8101   27.8905    1.7670 H         1 UNK         0.3121 
    106 H106       27.6617   30.4566    2.4429 H         1 UNK         0.0774 
    107 H107       29.3013   31.2860    0.7627 H         1 UNK         0.0815 
    108 H108       30.0500   29.6932    0.6877 H         1 UNK         0.0815 
    109 H109       28.3845   29.9218    0.1524 H         1 UNK         0.0815 
    110 H110       28.0914   30.4673    4.7414 H         1 UNK         0.2987 
    111 H111       30.5836   30.5101    5.9912 H         1 UNK         0.0949 
    112 H112       28.4279   30.3199    7.1908 H         1 UNK         0.0806 
    113 H113       29.3697   31.6450    7.8524 H         1 UNK         0.0806 
    114 H114       28.0188   31.9863    6.7792 H         1 UNK         0.0806 
    115 H115       29.1916   33.0305    4.0565 H         1 UNK         0.3010 
    116 H116       30.9976   35.1532    4.9880 H         1 UNK         0.0829 
    117 H117       28.6641   35.6823    4.2720 H         1 UNK         0.0813 
    118 H118       29.8331   36.4868    3.2407 H         1 UNK         0.0813 
    119 H119       29.0016   35.0518    2.6588 H         1 UNK         0.0813 
    120 H120       31.4356   32.4405    2.9620 H         1 UNK         0.3038 
    121 H121       33.7042   33.6964    1.5455 H         1 UNK         0.0769 
    122 H122       32.9195   32.7201   -0.6305 H         1 UNK         0.0811 
    123 H123       31.8427   33.9715   -0.0461 H         1 UNK         0.0811 
    124 H124       31.3799   32.2853    0.1147 H         1 UNK         0.0811 
    125 H125       32.5776   30.6670    0.4362 H         1 UNK         0.3204 
    126 H126       34.9961   29.3968    0.8978 H         1 UNK         0.0748 
    127 H127       33.7716   27.3453    0.0939 H         1 UNK         0.0771 
    128 H128       32.2479   28.2135    0.2621 H         1 UNK         0.0771 
    129 H129       33.4548   28.7539   -0.9032 H         1 UNK         0.0771 
    130 H130       32.2062   29.4108    3.0783 H         1 UNK         0.2980 
    131 H131       33.5906   27.5089    4.9054 H         1 UNK         0.0545 
    132 H132       33.8909   31.2703    6.0526 H         1 UNK         0.3459 
    133 H133       33.8607   30.7561    4.3849 H         1 UNK         0.3459 
    134 H134       31.2168   26.9296    4.1606 H         1 UNK         0.0616 
    135 H135       30.6591   28.3362    5.0114 H         1 UNK         0.0616 
    136 H136       32.7730   25.0896    5.3470 H         1 UNK         0.0634 
    137 H137       32.2546   24.4299    6.8793 H         1 UNK         0.0634 
@<TRIPOS>BOND
     1    1    2 1    
     2    1   72 1    
     3    1   73 1    
     4    1   74 1    
     5    2    3 2    
     6    2    4 am   BACKBONE|DICT|INTERRES
     7    4    5 1    
     8    4   75 1    
     9    5    6 1    
    10    5   35 1    
    11    5   76 1    
    12    6    7 1    
    13    6   77 1    
    14    6   78 1    
    15    7    8 1    
    16    8    9 1    
    17    8   79 1    
    18    8   80 1    
    19    9   10 ar   
    20    9   14 ar   
    21   10   11 ar   
    22   10   81 1    
    23   11   12 ar   
    24   11   71 1    
    25   12   13 ar   
    26   12   82 1    
    27   13   14 ar   
    28   13   15 1    
    29   14   83 1    
    30   15   16 1    
    31   15   84 1    
    32   15   85 1    
    33   16   17 1    
    34   17   18 1    
    35   17   86 1    
    36   17   87 1    
    37   18   19 1    
    38   18   37 1    
    39   18   88 1    
    40   19   20 am   BACKBONE|DICT|INTERRES
    41   19   89 1    
    42   20   21 2    
    43   20   22 1    
    44   22   23 1    
    45   22   24 1    
    46   22   90 1    
    47   23   91 1    
    48   23   92 1    
    49   23   93 1    
    50   24   25 am   BACKBONE|DICT|INTERRES
    51   24   94 1    
    52   25   26 2    
    53   25   27 1    
    54   27   28 1    
    55   27   29 1    
    56   27   95 1    
    57   28   96 1    
    58   28   97 1    
    59   28   98 1    
    60   29   30 am   BACKBONE|DICT|INTERRES
    61   29   99 1    
    62   30   31 2    
    63   30   32 1    
    64   32   33 1    
    65   32   34 1    
    66   32  100 1    
    67   33  101 1    
    68   33  102 1    
    69   33  103 1    
    70   34   35 am   BACKBONE|DICT|INTERRES
    71   34  104 1    
    72   35   36 2    
    73   37   38 2    
    74   37   39 am   BACKBONE|DICT|INTERRES
    75   39   40 1    
    76   39  105 1    
    77   40   41 1    
    78   40   42 1    
    79   40  106 1    
    80   41  107 1    
    81   41  108 1    
    82   41  109 1    
    83   42   43 2    
    84   42   44 am   BACKBONE|DICT|INTERRES
    85   44   45 1    
    86   44  110 1    
    87   45   46 1    
    88   45   47 1    
    89   45  111 1    
    90   46  112 1    
    91   46  113 1    
    92   46  114 1    
    93   47   48 2    
    94   47   49 am   BACKBONE|DICT|INTERRES
    95   49   50 1    
    96   49  115 1    
    97   50   51 1    
    98   50   52 1    
    99   50  116 1    
   100   51  117 1    
   101   51  118 1    
   102   51  119 1    
   103   52   53 2    
   104   52   54 am   BACKBONE|DICT|INTERRES
   105   54   55 1    
   106   54  120 1    
   107   55   56 1    
   108   55   57 1    
   109   55  121 1    
   110   56  122 1    
   111   56  123 1    
   112   56  124 1    
   113   57   58 2    
   114   57   59 am   BACKBONE|DICT|INTERRES
   115   59   60 1    
   116   59  125 1    
   117   60   61 1    
   118   60   62 1    
   119   60  126 1    
   120   61  127 1    
   121   61  128 1    
   122   61  129 1    
   123   62   63 2    
   124   62   64 am   BACKBONE|DICT|INTERRES
   125   64   65 1    
   126   64  130 1    
   127   65   66 1    
   128   65   69 1    
   129   65  131 1    
   130   66   67 am   BACKBONE|DICT|INTERRES
   131   66   68 2    
   132   67  132 1    
   133   67  133 1    
   134   69   70 1    
   135   69  134 1    
   136   69  135 1    
   137   70   71 1    
   138   71  136 1    
   139   71  137 1    
@<TRIPOS>SUBSTRUCTURE
     1 UNK         1 GROUP             0       ****    0 ROOT    
