@<TRIPOS>MOLECULE
3R136
137   139    1
SMALL
USER_CHARGES


@<TRIPOS>ATOM
      1 CA         29.3236   18.5481    1.8943 C.3       0 UNK        -0.1979 
      2 C          29.0076   19.4182    0.6868 C.2       0 UNK         0.4864 
      3 O          28.3257   18.9644   -0.2331 O.2       0 UNK        -0.5359 
      4 N          29.4970   20.6655    0.6842 N.am      1 UNK        -0.4318 
      5 CA         29.3078   21.6371   -0.4021 C.3       1 UNK         0.0824 
      6 C6         30.3194   22.8033   -0.3260 C.3       12 UNK        -0.0944 
      7 S7         32.0694   22.2867   -0.3329 S.3       12 UNK        -0.2672 
      8 C8         32.5559   22.4491    1.4210 C.3       12 UNK         0.0333 
      9 C9         32.2133   23.8030    2.0372 C.ar      12 UNK        -0.0807 
     10 C10        32.6233   24.9925    1.4264 C.ar      12 UNK        -0.0894 
     11 C11        32.3142   26.2273    2.0024 C.ar      12 UNK        -0.0804 
     12 C12        31.6087   26.2681    3.2079 C.ar      12 UNK        -0.0824 
     13 C13        31.1759   25.0894    3.8258 C.ar      12 UNK        -0.0762 
     14 C14        31.4871   23.8615    3.2320 C.ar      12 UNK        -0.0782 
     15 C15        30.4093   25.1015    5.1502 C.3       12 UNK         0.0230 
     16 S16        29.2880   26.5238    5.3993 S.3       12 UNK        -0.2608 
     17 C17        28.1413   26.3847    3.9834 C.3       12 UNK        -0.0989 
     18 CA         28.3002   27.5796    3.0047 C.3       5 UNK         0.0716 
     19 N          28.2295   27.1576    1.6051 N.am      5 UNK        -0.4135 
     20 C          28.7615   27.8370    0.5774 C.2       4 UNK         0.5031 
     21 O          29.3663   28.9018    0.7051 O.2       4 UNK        -0.5229 
     22 CA         28.5352   27.2661   -0.8350 C.3       4 UNK         0.0329 
     23 CB         29.7335   26.3968   -1.2406 C.3       4 UNK        -0.2001 
     24 N          27.2909   26.4954   -0.9645 N.am      4 UNK        -0.4303 
     25 C          26.0664   27.0012   -0.7497 C.2       3 UNK         0.5044 
     26 O          25.8633   28.1816   -0.4678 O.2       3 UNK        -0.5152 
     27 CA         24.8674   26.0380   -0.8005 C.3       3 UNK         0.0319 
     28 CB         24.2163   26.0728   -2.1922 C.3       3 UNK        -0.2001 
     29 N          25.1508   24.6446   -0.4374 N.am      3 UNK        -0.4354 
     30 C          25.7448   24.2064    0.6827 C.2       2 UNK         0.4964 
     31 O          26.2494   24.9440    1.5314 O.2       2 UNK        -0.5047 
     32 CA         25.7993   22.6816    0.8939 C.3       2 UNK         0.0288 
     33 CB         24.7568   21.8893    0.0704 C.3       2 UNK        -0.2113 
     34 N          27.1485   22.1525    0.6747 N.am      2 UNK        -0.4145 
     35 C          27.8776   22.2180   -0.4518 C.2       1 UNK         0.5006 
     36 O          27.4822   22.7374   -1.4974 O.2       1 UNK        -0.5103 
     37 C          27.3672   28.7677    3.3377 C.2       5 UNK         0.5055 
     38 O          27.4330   29.2817    4.4546 O.2       5 UNK        -0.5220 
     39 N          26.5680   29.2538    2.3713 N.am      6 UNK        -0.4450 
     40 CA         25.8717   30.5443    2.4602 C.3       6 UNK         0.0367 
     41 CB         24.8968   30.6929    1.2826 C.3       6 UNK        -0.1929 
     42 C          26.8420   31.7431    2.5103 C.2       6 UNK         0.5070 
     43 O          26.4763   32.7919    3.0397 O.2       6 UNK        -0.5237 
     44 N          28.0714   31.5548    2.0067 N.am      7 UNK        -0.4739 
     45 CA         29.1932   32.4899    2.1290 C.3       7 UNK         0.0276 
     46 CB         30.0514   32.3843    0.8566 C.3       7 UNK        -0.1927 
     47 C          30.0334   32.2445    3.4034 C.2       7 UNK         0.5013 
     48 O          31.1456   32.7699    3.4956 O.2       7 UNK        -0.5193 
     49 N          29.4961   31.4535    4.3481 N.am      8 UNK        -0.4253 
     50 CA         30.0928   30.9684    5.5983 C.3       8 UNK         0.0242 
     51 CB         30.5589   32.1410    6.4897 C.3       8 UNK        -0.2000 
     52 C          31.2143   29.9432    5.3595 C.2       8 UNK         0.4948 
     53 O          31.6188   29.7060    4.2207 O.2       8 UNK        -0.5275 
     54 N          31.7325   29.3681    6.4540 N.am      9 UNK        -0.4246 
     55 CA         32.8612   28.4262    6.4511 C.3       9 UNK         0.0261 
     56 CB         33.0204   27.8244    7.8564 C.3       9 UNK        -0.1959 
     57 C          34.1903   29.0417    5.9654 C.2       9 UNK         0.5033 
     58 O          35.0986   28.2998    5.5911 O.2       9 UNK        -0.5390 
     59 N          34.2747   30.3799    5.9656 N.am      10 UNK        -0.4215 
     60 CA         35.3453   31.1606    5.3443 C.3       10 UNK         0.0240 
     61 CB         35.3042   32.5924    5.9044 C.3       10 UNK        -0.1982 
     62 C          35.2654   31.1860    3.8041 C.2       10 UNK         0.4970 
     63 O          36.2708   31.5092    3.1699 O.2       10 UNK        -0.4916 
     64 N          34.0954   30.8555    3.2365 N.am      11 UNK        -0.4279 
     65 CA         33.8065   30.8009    1.7956 C.3       11 UNK         0.1003 
     66 C          33.9398   32.1823    1.0907 C.2       11 UNK         0.5709 
     67 N          33.4361   33.2508    1.6958 N.am      11 UNK        -0.7358 
     68 O          34.4921   32.2965   -0.0016 O.2       11 UNK        -0.4999 
     69 C69        34.5550   29.6493    1.0605 C.3       12 UNK        -0.0954 
     70 S70        34.3898   28.0290    1.8843 S.3       12 UNK        -0.2268 
     71 C71        32.7392   27.5197    1.3257 C.3       12 UNK         0.0203 
     72 H72        28.4015   18.2363    2.3840 H         1 UNK         0.0888 
     73 H73        29.8621   17.6541    1.5809 H         1 UNK         0.0888 
     74 H74        29.9365   19.0726    2.6271 H         1 UNK         0.0888 
     75 H75        30.0666   20.9773    1.4563 H         1 UNK         0.3017 
     76 H76        29.4693   21.1141   -1.3474 H         1 UNK         0.0873 
     77 H77        30.1120   23.4315    0.5409 H         1 UNK         0.0745 
     78 H78        30.1942   23.4460   -1.1989 H         1 UNK         0.0745 
     79 H79        33.6329   22.2946    1.4977 H         1 UNK         0.0705 
     80 H80        32.0938   21.6385    1.9855 H         1 UNK         0.0705 
     81 H81        33.1811   24.9564    0.5005 H         1 UNK         0.1334 
     82 H82        31.3986   27.2251    3.6616 H         1 UNK         0.1417 
     83 H83        31.1720   22.9447    3.7117 H         1 UNK         0.1562 
     84 H84        31.1346   25.0915    5.9647 H         1 UNK         0.0748 
     85 H85        29.8204   24.1885    5.2522 H         1 UNK         0.0748 
     86 H86        27.1176   26.2979    4.3529 H         1 UNK         0.0940 
     87 H87        28.3420   25.4405    3.4742 H         1 UNK         0.0940 
     88 H88        29.3051   27.9860    3.1331 H         1 UNK         0.0703 
     89 H89        27.6821   26.3222    1.4194 H         1 UNK         0.3081 
     90 H90        28.4707   28.1082   -1.5272 H         1 UNK         0.0719 
     91 H91        30.6390   27.0003   -1.3155 H         1 UNK         0.0809 
     92 H92        29.9282   25.6229   -0.4995 H         1 UNK         0.0809 
     93 H93        29.5809   25.9186   -2.2083 H         1 UNK         0.0809 
     94 H94        27.3712   25.5129   -1.1883 H         1 UNK         0.2990 
     95 H95        24.1381   26.4076   -0.0770 H         1 UNK         0.0690 
     96 H96        24.8793   25.6666   -2.9573 H         1 UNK         0.0788 
     97 H97        23.9693   27.0949   -2.4836 H         1 UNK         0.0788 
     98 H98        23.2884   25.5008   -2.2122 H         1 UNK         0.0788 
     99 H99        24.8204   23.9428   -1.0842 H         1 UNK         0.2993 
    100 H100       25.5706   22.5197    1.9486 H         1 UNK         0.0949 
    101 H101       24.9432   21.9375   -1.0029 H         1 UNK         0.0767 
    102 H102       24.7613   20.8362    0.3525 H         1 UNK         0.0767 
    103 H103       23.7472   22.2619    0.2500 H         1 UNK         0.0767 
    104 H104       27.5853   21.7321    1.4824 H         1 UNK         0.3013 
    105 H105       26.5331   28.7867    1.4716 H         1 UNK         0.3121 
    106 H106       25.2921   30.5501    3.3859 H         1 UNK         0.0774 
    107 H107       24.3172   31.6127    1.3709 H         1 UNK         0.0815 
    108 H108       25.4216   30.7304    0.3271 H         1 UNK         0.0815 
    109 H109       24.1881   29.8654    1.2444 H         1 UNK         0.0815 
    110 H110       28.2943   30.6572    1.5905 H         1 UNK         0.2987 
    111 H111       28.8086   33.5100    2.1925 H         1 UNK         0.0949 
    112 H112       30.5561   31.4198    0.7902 H         1 UNK         0.0806 
    113 H113       29.4478   32.5090   -0.0424 H         1 UNK         0.0806 
    114 H114       30.8161   33.1603    0.8358 H         1 UNK         0.0806 
    115 H115       28.5975   31.0355    4.1399 H         1 UNK         0.3010 
    116 H116       29.2937   30.4413    6.1219 H         1 UNK         0.0829 
    117 H117       30.8091   31.8025    7.4955 H         1 UNK         0.0813 
    118 H118       31.4424   32.6370    6.0867 H         1 UNK         0.0813 
    119 H119       29.7757   32.8919    6.5942 H         1 UNK         0.0813 
    120 H120       31.3388   29.5946    7.3563 H         1 UNK         0.3038 
    121 H121       32.6147   27.6164    5.7612 H         1 UNK         0.0769 
    122 H122       33.8330   27.0967    7.8791 H         1 UNK         0.0811 
    123 H123       32.1150   27.3040    8.1696 H         1 UNK         0.0811 
    124 H124       33.2467   28.5888    8.6008 H         1 UNK         0.0811 
    125 H125       33.4855   30.8986    6.3201 H         1 UNK         0.3204 
    126 H126       36.3025   30.7108    5.6165 H         1 UNK         0.0748 
    127 H127       36.1125   33.1967    5.4901 H         1 UNK         0.0771 
    128 H128       34.3662   33.0942    5.6620 H         1 UNK         0.0771 
    129 H129       35.4205   32.5992    6.9884 H         1 UNK         0.0771 
    130 H130       33.3138   30.5785    3.8216 H         1 UNK         0.2980 
    131 H131       32.7432   30.5701    1.7319 H         1 UNK         0.0545 
    132 H132       32.8791   33.1429    2.5372 H         1 UNK         0.3459 
    133 H133       33.5205   34.1536    1.2580 H         1 UNK         0.3459 
    134 H134       34.1960   29.5544    0.0343 H         1 UNK         0.0616 
    135 H135       35.6197   29.8770    0.9893 H         1 UNK         0.0616 
    136 H136       32.7412   27.3980    0.2417 H         1 UNK         0.0634 
    137 H137       32.0178   28.3069    1.5503 H         1 UNK         0.0634 
@<TRIPOS>BOND
     1    1    2 1    
     2    1   72 1    
     3    1   73 1    
     4    1   74 1    
     5    2    3 2    
     6    2    4 am   BACKBONE|DICT|INTERRES
     7    4    5 1    
     8    4   75 1    
     9    5    6 1    
    10    5   35 1    
    11    5   76 1    
    12    6    7 1    
    13    6   77 1    
    14    6   78 1    
    15    7    8 1    
    16    8    9 1    
    17    8   79 1    
    18    8   80 1    
    19    9   10 ar   
    20    9   14 ar   
    21   10   11 ar   
    22   10   81 1    
    23   11   12 ar   
    24   11   71 1    
    25   12   13 ar   
    26   12   82 1    
    27   13   14 ar   
    28   13   15 1    
    29   14   83 1    
    30   15   16 1    
    31   15   84 1    
    32   15   85 1    
    33   16   17 1    
    34   17   18 1    
    35   17   86 1    
    36   17   87 1    
    37   18   19 1    
    38   18   37 1    
    39   18   88 1    
    40   19   20 am   BACKBONE|DICT|INTERRES
    41   19   89 1    
    42   20   21 2    
    43   20   22 1    
    44   22   23 1    
    45   22   24 1    
    46   22   90 1    
    47   23   91 1    
    48   23   92 1    
    49   23   93 1    
    50   24   25 am   BACKBONE|DICT|INTERRES
    51   24   94 1    
    52   25   26 2    
    53   25   27 1    
    54   27   28 1    
    55   27   29 1    
    56   27   95 1    
    57   28   96 1    
    58   28   97 1    
    59   28   98 1    
    60   29   30 am   BACKBONE|DICT|INTERRES
    61   29   99 1    
    62   30   31 2    
    63   30   32 1    
    64   32   33 1    
    65   32   34 1    
    66   32  100 1    
    67   33  101 1    
    68   33  102 1    
    69   33  103 1    
    70   34   35 am   BACKBONE|DICT|INTERRES
    71   34  104 1    
    72   35   36 2    
    73   37   38 2    
    74   37   39 am   BACKBONE|DICT|INTERRES
    75   39   40 1    
    76   39  105 1    
    77   40   41 1    
    78   40   42 1    
    79   40  106 1    
    80   41  107 1    
    81   41  108 1    
    82   41  109 1    
    83   42   43 2    
    84   42   44 am   BACKBONE|DICT|INTERRES
    85   44   45 1    
    86   44  110 1    
    87   45   46 1    
    88   45   47 1    
    89   45  111 1    
    90   46  112 1    
    91   46  113 1    
    92   46  114 1    
    93   47   48 2    
    94   47   49 am   BACKBONE|DICT|INTERRES
    95   49   50 1    
    96   49  115 1    
    97   50   51 1    
    98   50   52 1    
    99   50  116 1    
   100   51  117 1    
   101   51  118 1    
   102   51  119 1    
   103   52   53 2    
   104   52   54 am   BACKBONE|DICT|INTERRES
   105   54   55 1    
   106   54  120 1    
   107   55   56 1    
   108   55   57 1    
   109   55  121 1    
   110   56  122 1    
   111   56  123 1    
   112   56  124 1    
   113   57   58 2    
   114   57   59 am   BACKBONE|DICT|INTERRES
   115   59   60 1    
   116   59  125 1    
   117   60   61 1    
   118   60   62 1    
   119   60  126 1    
   120   61  127 1    
   121   61  128 1    
   122   61  129 1    
   123   62   63 2    
   124   62   64 am   BACKBONE|DICT|INTERRES
   125   64   65 1    
   126   64  130 1    
   127   65   66 1    
   128   65   69 1    
   129   65  131 1    
   130   66   67 am   BACKBONE|DICT|INTERRES
   131   66   68 2    
   132   67  132 1    
   133   67  133 1    
   134   69   70 1    
   135   69  134 1    
   136   69  135 1    
   137   70   71 1    
   138   71  136 1    
   139   71  137 1    
@<TRIPOS>SUBSTRUCTURE
     1 UNK         1 GROUP             0       ****    0 ROOT    
