@<TRIPOS>MOLECULE
3R136
137   139    1
SMALL
USER_CHARGES


@<TRIPOS>ATOM
      1 CA         34.0274   24.4714   -3.1577 C.3       0 UNK        -0.1979 
      2 C          32.8231   24.9853   -2.3829 C.2       0 UNK         0.4864 
      3 O          32.5162   26.1763   -2.4515 O.2       0 UNK        -0.5359 
      4 N          32.1457   24.0989   -1.6420 N.am      1 UNK        -0.4318 
      5 CA         30.9314   24.4068   -0.8845 C.3       1 UNK         0.0824 
      6 C6         30.6670   23.3376    0.2051 C.3       12 UNK        -0.0944 
      7 S7         29.5064   23.9360    1.4764 S.3       12 UNK        -0.2672 
      8 C8         30.5439   23.9280    2.9690 C.3       12 UNK         0.0333 
      9 C9         29.8539   24.6836    4.0917 C.ar      12 UNK        -0.0807 
     10 C10        30.3293   25.9297    4.5061 C.ar      12 UNK        -0.0894 
     11 C11        29.6734   26.6496    5.5157 C.ar      12 UNK        -0.0804 
     12 C12        28.5186   26.1037    6.0888 C.ar      12 UNK        -0.0824 
     13 C13        28.0199   24.8663    5.6678 C.ar      12 UNK        -0.0762 
     14 C14        28.7141   24.1479    4.6912 C.ar      12 UNK        -0.0782 
     15 C15        26.7278   24.3123    6.2577 C.3       12 UNK         0.0230 
     16 S16        25.5597   23.7294    4.9789 S.3       12 UNK        -0.2608 
     17 C17        24.9214   25.2856    4.2719 C.3       12 UNK        -0.0989 
     18 CA         25.7186   25.7705    3.0156 C.3       5 UNK         0.0716 
     19 N          24.8854   26.0163    1.8343 N.am      5 UNK        -0.4135 
     20 C          23.8290   26.8416    1.7476 C.2       4 UNK         0.5031 
     21 O          23.3531   27.4460    2.7094 O.2       4 UNK        -0.5229 
     22 CA         23.1834   27.0536    0.3605 C.3       4 UNK         0.0329 
     23 CB         23.3791   28.5072   -0.1040 C.3       4 UNK        -0.2001 
     24 N          23.6936   26.1616   -0.6821 N.am      4 UNK        -0.4303 
     25 C          23.4639   24.8443   -0.7685 C.2       3 UNK         0.5044 
     26 O          22.6863   24.2370   -0.0323 O.2       3 UNK        -0.5152 
     27 CA         24.2646   24.0636   -1.8311 C.3       3 UNK         0.0319 
     28 CB         23.3669   23.7158   -3.0296 C.3       3 UNK        -0.2001 
     29 N          25.4738   24.7448   -2.3193 N.am      3 UNK        -0.4354 
     30 C          26.5207   25.1152   -1.5674 C.2       2 UNK         0.4964 
     31 O          26.5687   24.9764   -0.3418 O.2       2 UNK        -0.5047 
     32 CA         27.6552   25.8440   -2.3009 C.3       2 UNK         0.0288 
     33 CB         27.3806   27.3572   -2.3220 C.3       2 UNK        -0.2113 
     34 N          28.9275   25.6078   -1.6256 N.am      2 UNK        -0.4145 
     35 C          29.7265   24.5573   -1.8373 C.2       1 UNK         0.5006 
     36 O          29.5366   23.7142   -2.7192 O.2       1 UNK        -0.5103 
     37 C          26.6065   27.0093    3.2546 C.2       5 UNK         0.5055 
     38 O          26.4096   27.7516    4.2194 O.2       5 UNK        -0.5220 
     39 N          27.5391   27.2421    2.3243 N.am      6 UNK        -0.4450 
     40 CA         28.4980   28.3400    2.3597 C.3       6 UNK         0.0367 
     41 CB         27.8389   29.6404    1.8649 C.3       6 UNK        -0.1929 
     42 C          29.6916   27.9720    1.4782 C.2       6 UNK         0.5070 
     43 O          29.5057   27.3137    0.4554 O.2       6 UNK        -0.5237 
     44 N          30.8809   28.4392    1.8608 N.am      7 UNK        -0.4739 
     45 CA         32.1254   28.3077    1.1040 C.3       7 UNK         0.0276 
     46 CB         32.9239   27.0916    1.6094 C.3       7 UNK        -0.1927 
     47 C          32.8945   29.6301    1.2227 C.2       7 UNK         0.5013 
     48 O          34.0512   29.6432    1.6479 O.2       7 UNK        -0.5193 
     49 N          32.1996   30.7308    0.8960 N.am      8 UNK        -0.4253 
     50 CA         32.6167   32.1243    1.0888 C.3       8 UNK         0.0242 
     51 CB         33.7924   32.4811    0.1488 C.3       8 UNK        -0.2000 
     52 C          32.8782   32.4242    2.5801 C.2       8 UNK         0.4948 
     53 O          32.1342   31.9337    3.4318 O.2       8 UNK        -0.5275 
     54 N          33.9156   33.2161    2.8773 N.am      9 UNK        -0.4246 
     55 CA         34.3433   33.5362    4.2416 C.3       9 UNK         0.0261 
     56 CB         35.1242   34.8609    4.2209 C.3       9 UNK        -0.1959 
     57 C          35.1922   32.4272    4.8917 C.2       9 UNK         0.5033 
     58 O          35.3615   32.4491    6.1118 O.2       9 UNK        -0.5390 
     59 N          35.7279   31.4946    4.0879 N.am      10 UNK        -0.4215 
     60 CA         36.6857   30.4662    4.5118 C.3       10 UNK         0.0240 
     61 CB         37.2123   29.7136    3.2791 C.3       10 UNK        -0.1982 
     62 C          36.1408   29.4774    5.5562 C.2       10 UNK         0.4970 
     63 O          36.9190   28.9876    6.3758 O.2       10 UNK        -0.4916 
     64 N          34.8290   29.2158    5.5215 N.am      11 UNK        -0.4279 
     65 CA         34.1168   28.4049    6.5191 C.3       11 UNK         0.1003 
     66 C          33.7278   29.1696    7.8201 C.2       11 UNK         0.5709 
     67 N          34.0150   30.4601    7.9566 N.am      11 UNK        -0.7358 
     68 O          33.1701   28.5725    8.7378 O.2       11 UNK        -0.4999 
     69 C69        32.9310   27.6378    5.8810 C.3       12 UNK        -0.0954 
     70 S70        31.6256   28.7151    5.1934 S.3       12 UNK        -0.2268 
     71 C71        30.1390   28.0265    6.0050 C.3       12 UNK         0.0203 
     72 H72        34.1897   23.4052   -3.0002 H         1 UNK         0.0888 
     73 H73        34.9275   25.0006   -2.8461 H         1 UNK         0.0888 
     74 H74        33.8855   24.6387   -4.2250 H         1 UNK         0.0888 
     75 H75        32.4211   23.1273   -1.6546 H         1 UNK         0.3017 
     76 H76        31.1008   25.3642   -0.3876 H         1 UNK         0.0873 
     77 H77        31.6034   23.0611    0.6921 H         1 UNK         0.0745 
     78 H78        30.2748   22.4156   -0.2287 H         1 UNK         0.0745 
     79 H79        30.7326   22.8983    3.2759 H         1 UNK         0.0705 
     80 H80        31.5150   24.3714    2.7481 H         1 UNK         0.0705 
     81 H81        31.2042   26.3327    4.0199 H         1 UNK         0.1334 
     82 H82        27.9884   26.6620    6.8485 H         1 UNK         0.1417 
     83 H83        28.3408   23.1881    4.3602 H         1 UNK         0.1562 
     84 H84        26.2311   25.0547    6.8843 H         1 UNK         0.0748 
     85 H85        26.9773   23.4748    6.9103 H         1 UNK         0.0748 
     86 H86        24.8481   26.0409    5.0556 H         1 UNK         0.0940 
     87 H87        23.8858   25.0757    4.0017 H         1 UNK         0.0940 
     88 H88        26.3964   24.9703    2.7116 H         1 UNK         0.0703 
     89 H89        25.2359   25.5947    0.9793 H         1 UNK         0.3081 
     90 H90        22.1129   26.8688    0.4713 H         1 UNK         0.0719 
     91 H91        22.9669   29.2096    0.6220 H         1 UNK         0.0809 
     92 H92        24.4346   28.7522   -0.2296 H         1 UNK         0.0809 
     93 H93        22.8742   28.6938   -1.0520 H         1 UNK         0.0809 
     94 H94        24.3405   26.5660   -1.3426 H         1 UNK         0.2990 
     95 H95        24.5857   23.1308   -1.3628 H         1 UNK         0.0690 
     96 H96        23.8853   23.0744   -3.7426 H         1 UNK         0.0788 
     97 H97        23.0358   24.6102   -3.5590 H         1 UNK         0.0788 
     98 H98        22.4734   23.1792   -2.7067 H         1 UNK         0.0788 
     99 H99        25.5081   24.9261   -3.3128 H         1 UNK         0.2993 
    100 H100       27.7161   25.4783   -3.3282 H         1 UNK         0.0949 
    101 H101       27.2878   27.7646   -1.3139 H         1 UNK         0.0767 
    102 H102       28.1838   27.8966   -2.8246 H         1 UNK         0.0767 
    103 H103       26.4561   27.5839   -2.8545 H         1 UNK         0.0767 
    104 H104       29.1394   26.2285   -0.8422 H         1 UNK         0.3013 
    105 H105       27.6751   26.5894    1.5601 H         1 UNK         0.3121 
    106 H106       28.8470   28.4759    3.3844 H         1 UNK         0.0774 
    107 H107       27.4682   29.5387    0.8441 H         1 UNK         0.0815 
    108 H108       26.9996   29.9282    2.4980 H         1 UNK         0.0815 
    109 H109       28.5491   30.4679    1.8760 H         1 UNK         0.0815 
    110 H110       30.9483   28.9830    2.7128 H         1 UNK         0.2987 
    111 H111       31.9085   28.1605    0.0431 H         1 UNK         0.0949 
    112 H112       32.3513   26.1723    1.5028 H         1 UNK         0.0806 
    113 H113       33.8449   26.9668    1.0388 H         1 UNK         0.0806 
    114 H114       33.2000   27.1994    2.6580 H         1 UNK         0.0806 
    115 H115       31.2437   30.6022    0.5957 H         1 UNK         0.3010 
    116 H116       31.7641   32.7419    0.8028 H         1 UNK         0.0829 
    117 H117       33.9977   33.5522    0.1540 H         1 UNK         0.0813 
    118 H118       33.5611   32.2131   -0.8823 H         1 UNK         0.0813 
    119 H119       34.7118   31.9620    0.4223 H         1 UNK         0.0813 
    120 H120       34.4704   33.5936    2.1221 H         1 UNK         0.3038 
    121 H121       33.4582   33.6756    4.8664 H         1 UNK         0.0769 
    122 H122       34.5158   35.6745    3.8253 H         1 UNK         0.0811 
    123 H123       36.0277   34.7897    3.6141 H         1 UNK         0.0811 
    124 H124       35.4306   35.1492    5.2276 H         1 UNK         0.0811 
    125 H125       35.4912   31.5130    3.1060 H         1 UNK         0.3204 
    126 H126       37.5283   30.9851    4.9737 H         1 UNK         0.0748 
    127 H127       37.9732   28.9854    3.5629 H         1 UNK         0.0771 
    128 H128       36.4177   29.1689    2.7684 H         1 UNK         0.0771 
    129 H129       37.6697   30.3942    2.5608 H         1 UNK         0.0771 
    130 H130       34.2551   29.6668    4.8236 H         1 UNK         0.2980 
    131 H131       34.8103   27.6340    6.8599 H         1 UNK         0.0545 
    132 H132       33.7590   30.9281    8.8109 H         1 UNK         0.3459 
    133 H133       34.4926   30.9769    7.2273 H         1 UNK         0.3459 
    134 H134       32.4965   26.9487    6.6073 H         1 UNK         0.0616 
    135 H135       33.3036   27.0060    5.0742 H         1 UNK         0.0616 
    136 H136       30.3166   27.9846    7.0806 H         1 UNK         0.0634 
    137 H137       29.3237   28.7360    5.8572 H         1 UNK         0.0634 
@<TRIPOS>BOND
     1    1    2 1    
     2    1   72 1    
     3    1   73 1    
     4    1   74 1    
     5    2    3 2    
     6    2    4 am   BACKBONE|DICT|INTERRES
     7    4    5 1    
     8    4   75 1    
     9    5    6 1    
    10    5   35 1    
    11    5   76 1    
    12    6    7 1    
    13    6   77 1    
    14    6   78 1    
    15    7    8 1    
    16    8    9 1    
    17    8   79 1    
    18    8   80 1    
    19    9   10 ar   
    20    9   14 ar   
    21   10   11 ar   
    22   10   81 1    
    23   11   12 ar   
    24   11   71 1    
    25   12   13 ar   
    26   12   82 1    
    27   13   14 ar   
    28   13   15 1    
    29   14   83 1    
    30   15   16 1    
    31   15   84 1    
    32   15   85 1    
    33   16   17 1    
    34   17   18 1    
    35   17   86 1    
    36   17   87 1    
    37   18   19 1    
    38   18   37 1    
    39   18   88 1    
    40   19   20 am   BACKBONE|DICT|INTERRES
    41   19   89 1    
    42   20   21 2    
    43   20   22 1    
    44   22   23 1    
    45   22   24 1    
    46   22   90 1    
    47   23   91 1    
    48   23   92 1    
    49   23   93 1    
    50   24   25 am   BACKBONE|DICT|INTERRES
    51   24   94 1    
    52   25   26 2    
    53   25   27 1    
    54   27   28 1    
    55   27   29 1    
    56   27   95 1    
    57   28   96 1    
    58   28   97 1    
    59   28   98 1    
    60   29   30 am   BACKBONE|DICT|INTERRES
    61   29   99 1    
    62   30   31 2    
    63   30   32 1    
    64   32   33 1    
    65   32   34 1    
    66   32  100 1    
    67   33  101 1    
    68   33  102 1    
    69   33  103 1    
    70   34   35 am   BACKBONE|DICT|INTERRES
    71   34  104 1    
    72   35   36 2    
    73   37   38 2    
    74   37   39 am   BACKBONE|DICT|INTERRES
    75   39   40 1    
    76   39  105 1    
    77   40   41 1    
    78   40   42 1    
    79   40  106 1    
    80   41  107 1    
    81   41  108 1    
    82   41  109 1    
    83   42   43 2    
    84   42   44 am   BACKBONE|DICT|INTERRES
    85   44   45 1    
    86   44  110 1    
    87   45   46 1    
    88   45   47 1    
    89   45  111 1    
    90   46  112 1    
    91   46  113 1    
    92   46  114 1    
    93   47   48 2    
    94   47   49 am   BACKBONE|DICT|INTERRES
    95   49   50 1    
    96   49  115 1    
    97   50   51 1    
    98   50   52 1    
    99   50  116 1    
   100   51  117 1    
   101   51  118 1    
   102   51  119 1    
   103   52   53 2    
   104   52   54 am   BACKBONE|DICT|INTERRES
   105   54   55 1    
   106   54  120 1    
   107   55   56 1    
   108   55   57 1    
   109   55  121 1    
   110   56  122 1    
   111   56  123 1    
   112   56  124 1    
   113   57   58 2    
   114   57   59 am   BACKBONE|DICT|INTERRES
   115   59   60 1    
   116   59  125 1    
   117   60   61 1    
   118   60   62 1    
   119   60  126 1    
   120   61  127 1    
   121   61  128 1    
   122   61  129 1    
   123   62   63 2    
   124   62   64 am   BACKBONE|DICT|INTERRES
   125   64   65 1    
   126   64  130 1    
   127   65   66 1    
   128   65   69 1    
   129   65  131 1    
   130   66   67 am   BACKBONE|DICT|INTERRES
   131   66   68 2    
   132   67  132 1    
   133   67  133 1    
   134   69   70 1    
   135   69  134 1    
   136   69  135 1    
   137   70   71 1    
   138   71  136 1    
   139   71  137 1    
@<TRIPOS>SUBSTRUCTURE
     1 UNK         1 GROUP             0       ****    0 ROOT    
