@<TRIPOS>MOLECULE
3R136
137   139    1
SMALL
USER_CHARGES


@<TRIPOS>ATOM
      1 CA         29.3275   19.8276   -2.8755 C.3       0 UNK        -0.1979 
      2 C          29.8615   21.2108   -2.5339 C.2       0 UNK         0.4864 
      3 O          30.2232   21.9653   -3.4376 O.2       0 UNK        -0.5359 
      4 N          29.9134   21.5467   -1.2366 N.am      1 UNK        -0.4318 
      5 CA         30.3819   22.8417   -0.7205 C.3       1 UNK         0.0824 
      6 C6         30.7037   22.7663    0.7986 C.3       12 UNK        -0.0944 
      7 S7         32.4273   23.2367    1.1790 S.3       12 UNK        -0.2672 
      8 C8         32.5956   22.6791    2.9090 C.3       12 UNK         0.0333 
      9 C9         31.7166   23.5020    3.8379 C.ar      12 UNK        -0.0807 
     10 C10        32.2031   24.6686    4.4326 C.ar      12 UNK        -0.0894 
     11 C11        31.3603   25.4874    5.1974 C.ar      12 UNK        -0.0804 
     12 C12        30.0209   25.1135    5.3665 C.ar      12 UNK        -0.0824 
     13 C13        29.5303   23.9380    4.7900 C.ar      12 UNK        -0.0762 
     14 C14        30.3937   23.1213    4.0588 C.ar      12 UNK        -0.0782 
     15 C15        28.0643   23.5509    4.9054 C.3       12 UNK         0.0230 
     16 S16        27.2823   23.5353    3.2576 S.3       12 UNK        -0.2608 
     17 C17        26.1302   24.9429    3.3368 C.3       12 UNK        -0.0989 
     18 CA         26.7851   26.3389    3.5146 C.3       5 UNK         0.0716 
     19 N          27.8577   26.6114    2.5571 N.am      5 UNK        -0.4135 
     20 C          28.8663   27.4682    2.7770 C.2       4 UNK         0.5031 
     21 O          29.0369   28.0720    3.8362 O.2       4 UNK        -0.5229 
     22 CA         29.8367   27.7221    1.6082 C.3       4 UNK         0.0329 
     23 CB         30.9780   26.6977    1.6184 C.3       4 UNK        -0.2001 
     24 N          29.1814   27.6987    0.2998 N.am      4 UNK        -0.4303 
     25 C          28.2354   28.5684   -0.0833 C.2       3 UNK         0.5044 
     26 O          27.8591   29.5168    0.6029 O.2       3 UNK        -0.5152 
     27 CA         27.5457   28.3126   -1.4336 C.3       3 UNK         0.0319 
     28 CB         28.2549   29.0940   -2.5502 C.3       3 UNK        -0.2001 
     29 N          27.4607   26.8987   -1.8096 N.am      3 UNK        -0.4354 
     30 C          26.9286   25.9084   -1.0772 C.2       2 UNK         0.4964 
     31 O          26.4204   26.0709    0.0342 O.2       2 UNK        -0.5047 
     32 CA         26.9985   24.4925   -1.6782 C.3       2 UNK         0.0288 
     33 CB         27.0367   24.4875   -3.2229 C.3       2 UNK        -0.2113 
     34 N          28.1060   23.6778   -1.1589 N.am      2 UNK        -0.4145 
     35 C          29.4088   23.9989   -1.0550 C.2       1 UNK         0.5006 
     36 O          29.8612   25.1312   -1.2375 O.2       1 UNK        -0.5103 
     37 C          25.6955   27.4217    3.4212 C.2       5 UNK         0.5055 
     38 O          25.2305   27.9049    4.4542 O.2       5 UNK        -0.5220 
     39 N          25.2739   27.7393    2.1867 N.am      6 UNK        -0.4450 
     40 CA         24.1409   28.6236    1.8988 C.3       6 UNK         0.0367 
     41 CB         23.7438   28.4828    0.4210 C.3       6 UNK        -0.1929 
     42 C          24.3923   30.0986    2.2528 C.2       6 UNK         0.5070 
     43 O          23.4600   30.7775    2.6853 O.2       6 UNK        -0.5237 
     44 N          25.6298   30.5658    2.0605 N.am      7 UNK        -0.4739 
     45 CA         26.0821   31.9140    2.3812 C.3       7 UNK         0.0276 
     46 CB         26.3599   32.6852    1.0739 C.3       7 UNK        -0.1927 
     47 C          27.2964   31.7941    3.3109 C.2       7 UNK         0.5013 
     48 O          27.1105   31.6155    4.5156 O.2       7 UNK        -0.5193 
     49 N          28.5053   31.8914    2.7503 N.am      8 UNK        -0.4253 
     50 CA         29.7870   31.7938    3.4390 C.3       8 UNK         0.0242 
     51 CB         30.0569   33.0727    4.2585 C.3       8 UNK        -0.2000 
     52 C          30.8831   31.5750    2.3904 C.2       8 UNK         0.4948 
     53 O          30.6478   31.7921    1.1981 O.2       8 UNK        -0.5275 
     54 N          32.0665   31.1763    2.8600 N.am      9 UNK        -0.4246 
     55 CA         33.2827   30.9792    2.0784 C.3       9 UNK         0.0261 
     56 CB         33.2253   29.6251    1.3387 C.3       9 UNK        -0.1959 
     57 C          34.4821   31.0850    3.0334 C.2       9 UNK         0.5033 
     58 O          34.3026   31.4270    4.2074 O.2       9 UNK        -0.5390 
     59 N          35.6819   30.7542    2.5335 N.am      10 UNK        -0.4215 
     60 CA         36.9554   30.7466    3.2723 C.3       10 UNK         0.0240 
     61 CB         38.0920   30.3812    2.3027 C.3       10 UNK        -0.1982 
     62 C          36.9917   29.8296    4.5144 C.2       10 UNK         0.4970 
     63 O          37.8785   29.9896    5.3540 O.2       10 UNK        -0.4916 
     64 N          36.0254   28.9100    4.6183 N.am      11 UNK        -0.4279 
     65 CA         35.7095   28.1143    5.8107 C.3       11 UNK         0.1003 
     66 C          35.2745   28.9414    7.0591 C.2       11 UNK         0.5709 
     67 N          34.8281   30.1848    6.9115 N.am      11 UNK        -0.7358 
     68 O          35.3536   28.4440    8.1799 O.2       11 UNK        -0.4999 
     69 C69        34.6725   27.0137    5.4632 C.3       12 UNK        -0.0954 
     70 S70        33.0879   27.6932    4.8424 S.3       12 UNK        -0.2268 
     71 C71        31.8560   26.7849    5.8381 C.3       12 UNK         0.0203 
     72 H72        28.4464   19.9125   -3.5111 H         1 UNK         0.0888 
     73 H73        30.0830   19.2567   -3.4146 H         1 UNK         0.0888 
     74 H74        29.0498   19.2649   -1.9844 H         1 UNK         0.0888 
     75 H75        29.6171   20.8746   -0.5430 H         1 UNK         0.3017 
     76 H76        31.3022   23.0687   -1.2639 H         1 UNK         0.0873 
     77 H77        30.0315   23.3958    1.3839 H         1 UNK         0.0745 
     78 H78        30.5520   21.7552    1.1799 H         1 UNK         0.0745 
     79 H79        33.6408   22.7674    3.2092 H         1 UNK         0.0705 
     80 H80        32.3448   21.6196    2.9813 H         1 UNK         0.0705 
     81 H81        33.2316   24.9499    4.2639 H         1 UNK         0.1334 
     82 H82        29.3543   25.7510    5.9312 H         1 UNK         0.1417 
     83 H83        30.0115   22.2177    3.6039 H         1 UNK         0.1562 
     84 H84        27.5281   24.2187    5.5808 H         1 UNK         0.0748 
     85 H85        27.9922   22.5530    5.3401 H         1 UNK         0.0748 
     86 H86        25.4227   24.7538    4.1468 H         1 UNK         0.0940 
     87 H87        25.5417   24.9091    2.4174 H         1 UNK         0.0940 
     88 H88        27.2051   26.3842    4.5213 H         1 UNK         0.0703 
     89 H89        27.7533   26.1921    1.6417 H         1 UNK         0.3081 
     90 H90        30.2659   28.7157    1.7453 H         1 UNK         0.0719 
     91 H91        31.5464   26.7623    2.5444 H         1 UNK         0.0809 
     92 H92        31.6756   26.8606    0.7970 H         1 UNK         0.0809 
     93 H93        30.6012   25.6788    1.5429 H         1 UNK         0.0809 
     94 H94        29.4205   26.9322   -0.3222 H         1 UNK         0.2990 
     95 H95        26.5255   28.6884   -1.3550 H         1 UNK         0.0690 
     96 H96        27.7192   29.0114   -3.4961 H         1 UNK         0.0788 
     97 H97        29.2739   28.7377   -2.7070 H         1 UNK         0.0788 
     98 H98        28.3147   30.1557   -2.3055 H         1 UNK         0.0788 
     99 H99        27.8853   26.6451   -2.6899 H         1 UNK         0.2993 
    100 H100       26.0767   23.9953   -1.3716 H         1 UNK         0.0949 
    101 H101       26.2350   25.0971   -3.6427 H         1 UNK         0.0767 
    102 H102       27.9835   24.8612   -3.6151 H         1 UNK         0.0767 
    103 H103       26.9038   23.4771   -3.6102 H         1 UNK         0.0767 
    104 H104       27.8585   22.7254   -0.9318 H         1 UNK         0.3013 
    105 H105       25.6948   27.2613    1.3945 H         1 UNK         0.3121 
    106 H106       23.2984   28.2831    2.5049 H         1 UNK         0.0774 
    107 H107       22.8488   29.0668    0.2026 H         1 UNK         0.0815 
    108 H108       24.5309   28.8377   -0.2428 H         1 UNK         0.0815 
    109 H109       23.5262   27.4464    0.1622 H         1 UNK         0.0815 
    110 H110       26.3471   29.9457    1.6909 H         1 UNK         0.2987 
    111 H111       25.3169   32.4586    2.9388 H         1 UNK         0.0949 
    112 H112       25.4380   32.8400    0.5131 H         1 UNK         0.0806 
    113 H113       26.7788   33.6712    1.2799 H         1 UNK         0.0806 
    114 H114       27.0537   32.1568    0.4190 H         1 UNK         0.0806 
    115 H115       28.5892   31.9571    1.7420 H         1 UNK         0.3010 
    116 H116       29.7643   30.9238    4.0996 H         1 UNK         0.0829 
    117 H117       29.3009   33.2232    5.0290 H         1 UNK         0.0813 
    118 H118       31.0212   33.0221    4.7658 H         1 UNK         0.0813 
    119 H119       30.0680   33.9597    3.6238 H         1 UNK         0.0813 
    120 H120       32.2143   31.0979    3.8596 H         1 UNK         0.3038 
    121 H121       33.3710   31.7882    1.3503 H         1 UNK         0.0769 
    122 H122       33.1771   28.7879    2.0348 H         1 UNK         0.0811 
    123 H123       34.0961   29.4740    0.7009 H         1 UNK         0.0811 
    124 H124       32.3518   29.5658    0.6893 H         1 UNK         0.0811 
    125 H125       35.7343   30.4862    1.5611 H         1 UNK         0.3204 
    126 H126       37.1256   31.7641    3.6301 H         1 UNK         0.0748 
    127 H127       39.0593   30.4009    2.8071 H         1 UNK         0.0771 
    128 H128       37.9619   29.3809    1.8876 H         1 UNK         0.0771 
    129 H129       38.1499   31.0861    1.4730 H         1 UNK         0.0771 
    130 H130       35.3369   28.8647    3.8835 H         1 UNK         0.2980 
    131 H131       36.6337   27.6092    6.0969 H         1 UNK         0.0545 
    132 H132       34.7261   30.5915    5.9874 H         1 UNK         0.3459 
    133 H133       34.5543   30.7106    7.7254 H         1 UNK         0.3459 
    134 H134       35.0832   26.3609    4.6918 H         1 UNK         0.0616 
    135 H135       34.4966   26.3710    6.3272 H         1 UNK         0.0616 
    136 H136       31.0113   27.4597    5.9860 H         1 UNK         0.0634 
    137 H137       32.2524   26.5735    6.8316 H         1 UNK         0.0634 
@<TRIPOS>BOND
     1    1    2 1    
     2    1   72 1    
     3    1   73 1    
     4    1   74 1    
     5    2    3 2    
     6    2    4 am   BACKBONE|DICT|INTERRES
     7    4    5 1    
     8    4   75 1    
     9    5    6 1    
    10    5   35 1    
    11    5   76 1    
    12    6    7 1    
    13    6   77 1    
    14    6   78 1    
    15    7    8 1    
    16    8    9 1    
    17    8   79 1    
    18    8   80 1    
    19    9   10 ar   
    20    9   14 ar   
    21   10   11 ar   
    22   10   81 1    
    23   11   12 ar   
    24   11   71 1    
    25   12   13 ar   
    26   12   82 1    
    27   13   14 ar   
    28   13   15 1    
    29   14   83 1    
    30   15   16 1    
    31   15   84 1    
    32   15   85 1    
    33   16   17 1    
    34   17   18 1    
    35   17   86 1    
    36   17   87 1    
    37   18   19 1    
    38   18   37 1    
    39   18   88 1    
    40   19   20 am   BACKBONE|DICT|INTERRES
    41   19   89 1    
    42   20   21 2    
    43   20   22 1    
    44   22   23 1    
    45   22   24 1    
    46   22   90 1    
    47   23   91 1    
    48   23   92 1    
    49   23   93 1    
    50   24   25 am   BACKBONE|DICT|INTERRES
    51   24   94 1    
    52   25   26 2    
    53   25   27 1    
    54   27   28 1    
    55   27   29 1    
    56   27   95 1    
    57   28   96 1    
    58   28   97 1    
    59   28   98 1    
    60   29   30 am   BACKBONE|DICT|INTERRES
    61   29   99 1    
    62   30   31 2    
    63   30   32 1    
    64   32   33 1    
    65   32   34 1    
    66   32  100 1    
    67   33  101 1    
    68   33  102 1    
    69   33  103 1    
    70   34   35 am   BACKBONE|DICT|INTERRES
    71   34  104 1    
    72   35   36 2    
    73   37   38 2    
    74   37   39 am   BACKBONE|DICT|INTERRES
    75   39   40 1    
    76   39  105 1    
    77   40   41 1    
    78   40   42 1    
    79   40  106 1    
    80   41  107 1    
    81   41  108 1    
    82   41  109 1    
    83   42   43 2    
    84   42   44 am   BACKBONE|DICT|INTERRES
    85   44   45 1    
    86   44  110 1    
    87   45   46 1    
    88   45   47 1    
    89   45  111 1    
    90   46  112 1    
    91   46  113 1    
    92   46  114 1    
    93   47   48 2    
    94   47   49 am   BACKBONE|DICT|INTERRES
    95   49   50 1    
    96   49  115 1    
    97   50   51 1    
    98   50   52 1    
    99   50  116 1    
   100   51  117 1    
   101   51  118 1    
   102   51  119 1    
   103   52   53 2    
   104   52   54 am   BACKBONE|DICT|INTERRES
   105   54   55 1    
   106   54  120 1    
   107   55   56 1    
   108   55   57 1    
   109   55  121 1    
   110   56  122 1    
   111   56  123 1    
   112   56  124 1    
   113   57   58 2    
   114   57   59 am   BACKBONE|DICT|INTERRES
   115   59   60 1    
   116   59  125 1    
   117   60   61 1    
   118   60   62 1    
   119   60  126 1    
   120   61  127 1    
   121   61  128 1    
   122   61  129 1    
   123   62   63 2    
   124   62   64 am   BACKBONE|DICT|INTERRES
   125   64   65 1    
   126   64  130 1    
   127   65   66 1    
   128   65   69 1    
   129   65  131 1    
   130   66   67 am   BACKBONE|DICT|INTERRES
   131   66   68 2    
   132   67  132 1    
   133   67  133 1    
   134   69   70 1    
   135   69  134 1    
   136   69  135 1    
   137   70   71 1    
   138   71  136 1    
   139   71  137 1    
@<TRIPOS>SUBSTRUCTURE
     1 UNK         1 GROUP             0       ****    0 ROOT    
