@<TRIPOS>MOLECULE
3R136
137   139    1
SMALL
USER_CHARGES


@<TRIPOS>ATOM
      1 CA         32.0326   24.0291    5.1857 C.3       0 UNK        -0.1979 
      2 C          30.6801   23.4206    4.8590 C.2       0 UNK         0.4864 
      3 O          29.8768   23.1946    5.7644 O.2       0 UNK        -0.5359 
      4 N          30.4357   23.1259    3.5753 N.am      1 UNK        -0.4318 
      5 CA         29.2534   22.3936    3.1053 C.3       1 UNK         0.0824 
      6 C6         29.4242   21.8438    1.6651 C.3       12 UNK        -0.0944 
      7 S7         30.9917   20.9385    1.4266 S.3       12 UNK        -0.2672 
      8 C8         31.7688   21.8749    0.0691 C.3       12 UNK         0.0333 
      9 C9         32.0711   23.3215    0.4427 C.ar      12 UNK        -0.0807 
     10 C10        33.1224   23.6198    1.3166 C.ar      12 UNK        -0.0894 
     11 C11        33.4329   24.9474    1.6320 C.ar      12 UNK        -0.0804 
     12 C12        32.6788   25.9784    1.0603 C.ar      12 UNK        -0.0824 
     13 C13        31.6242   25.6946    0.1885 C.ar      12 UNK        -0.0762 
     14 C14        31.3254   24.3643   -0.1183 C.ar      12 UNK        -0.0782 
     15 C15        30.8301   26.8300   -0.4395 C.3       12 UNK         0.0230 
     16 S16        29.2346   27.0616    0.4020 S.3       12 UNK        -0.2608 
     17 C17        28.8993   28.8256    0.0707 C.3       12 UNK        -0.0989 
     18 CA         28.1003   29.0740   -1.2330 C.3       5 UNK         0.0716 
     19 N          26.8085   28.3852   -1.2108 N.am      5 UNK        -0.4135 
     20 C          25.9597   28.2756   -2.2412 C.2       4 UNK         0.5031 
     21 O          26.1762   28.7356   -3.3649 O.2       4 UNK        -0.5229 
     22 CA         24.6615   27.4926   -1.9556 C.3       4 UNK         0.0329 
     23 CB         23.8360   27.2020   -3.2277 C.3       4 UNK        -0.2001 
     24 N          24.9076   26.2578   -1.1973 N.am      4 UNK        -0.4303 
     25 C          25.6823   25.2246   -1.5601 C.2       3 UNK         0.5044 
     26 O          26.2883   25.1536   -2.6307 O.2       3 UNK        -0.5152 
     27 CA         25.8212   24.0967   -0.5234 C.3       3 UNK         0.0319 
     28 CB         26.5421   22.8565   -1.0857 C.3       3 UNK        -0.2001 
     29 N          26.5464   24.5546    0.6606 N.am      3 UNK        -0.4354 
     30 C          26.0306   25.2427    1.6889 C.2       2 UNK         0.4964 
     31 O          24.8682   25.6522    1.7096 O.2       2 UNK        -0.5047 
     32 CA         26.9742   25.5235    2.8809 C.3       2 UNK         0.0288 
     33 CB         26.2181   25.6689    4.2186 C.3       2 UNK        -0.2113 
     34 N          28.0703   24.5471    2.9981 N.am      2 UNK        -0.4145 
     35 C          27.9564   23.2213    3.1952 C.2       1 UNK         0.5006 
     36 O          26.8889   22.6390    3.3934 O.2       1 UNK        -0.5103 
     37 C          27.9267   30.5894   -1.4779 C.2       5 UNK         0.5055 
     38 O          26.9474   31.1807   -1.0153 O.2       5 UNK        -0.5220 
     39 N          28.8984   31.1942   -2.1758 N.am      6 UNK        -0.4450 
     40 CA         28.9286   32.6266   -2.5025 C.3       6 UNK         0.0367 
     41 CB         29.9139   32.8519   -3.6618 C.3       6 UNK        -0.1929 
     42 C          29.2873   33.5363   -1.3097 C.2       6 UNK         0.5070 
     43 O          29.0900   34.7489   -1.3951 O.2       6 UNK        -0.5237 
     44 N          29.8103   32.9466   -0.2316 N.am      7 UNK        -0.4739 
     45 CA         30.1390   33.5854    1.0389 C.3       7 UNK         0.0276 
     46 CB         31.6423   33.9174    1.0630 C.3       7 UNK        -0.1927 
     47 C          29.7543   32.6215    2.1706 C.2       7 UNK         0.5013 
     48 O          29.3752   31.4795    1.8952 O.2       7 UNK        -0.5193 
     49 N          29.8577   33.0884    3.4219 N.am      8 UNK        -0.4253 
     50 CA         29.5931   32.2948    4.6262 C.3       8 UNK         0.0242 
     51 CB         29.7167   33.1957    5.8660 C.3       8 UNK        -0.2000 
     52 C          30.5426   31.0899    4.7453 C.2       8 UNK         0.4948 
     53 O          31.7388   31.2253    4.4735 O.2       8 UNK        -0.5275 
     54 N          30.0052   29.9454    5.1862 N.am      9 UNK        -0.4246 
     55 CA         30.7013   28.6596    5.3174 C.3       9 UNK         0.0261 
     56 CB         29.6495   27.5337    5.3457 C.3       9 UNK        -0.1959 
     57 C          31.6721   28.6028    6.5183 C.2       9 UNK         0.5033 
     58 O          31.6566   27.6378    7.2852 O.2       9 UNK        -0.5390 
     59 N          32.5240   29.6288    6.6500 N.am      10 UNK        -0.4215 
     60 CA         33.5489   29.7809    7.6909 C.3       10 UNK         0.0240 
     61 CB         34.1624   31.1865    7.5871 C.3       10 UNK        -0.1982 
     62 C          34.6488   28.7031    7.6450 C.2       10 UNK         0.4970 
     63 O          35.3163   28.4752    8.6544 O.2       10 UNK        -0.4916 
     64 N          34.7954   28.0500    6.4870 N.am      11 UNK        -0.4279 
     65 CA         35.5936   26.8385    6.2677 C.3       11 UNK         0.1003 
     66 C          35.0884   25.5701    7.0212 C.2       11 UNK         0.5709 
     67 N          33.8891   25.5594    7.5944 N.am      11 UNK        -0.7358 
     68 O          35.8115   24.5800    7.0999 O.2       11 UNK        -0.4999 
     69 C69        35.7867   26.5798    4.7488 C.3       12 UNK        -0.0954 
     70 S70        34.2113   26.4963    3.8247 S.3       12 UNK        -0.2268 
     71 C71        34.6135   25.2606    2.5476 C.3       12 UNK         0.0203 
     72 H72        31.9335   25.0883    5.4176 H         1 UNK         0.0888 
     73 H73        32.4675   23.5308    6.0513 H         1 UNK         0.0888 
     74 H74        32.7310   23.9201    4.3581 H         1 UNK         0.0888 
     75 H75        31.1383   23.3144    2.8727 H         1 UNK         0.3017 
     76 H76        29.1251   21.5354    3.7690 H         1 UNK         0.0873 
     77 H77        29.3531   22.6470    0.9310 H         1 UNK         0.0745 
     78 H78        28.6086   21.1573    1.4290 H         1 UNK         0.0745 
     79 H79        31.1238   21.8275   -0.8098 H         1 UNK         0.0705 
     80 H80        32.6981   21.3770   -0.2116 H         1 UNK         0.0705 
     81 H81        33.7084   22.8135    1.7372 H         1 UNK         0.1334 
     82 H82        32.9206   27.0076    1.2887 H         1 UNK         0.1417 
     83 H83        30.5178   24.1455   -0.8039 H         1 UNK         0.1562 
     84 H84        30.6522   26.6240   -1.4960 H         1 UNK         0.0748 
     85 H85        31.4124   27.7516   -0.4016 H         1 UNK         0.0748 
     86 H86        29.8445   29.3714    0.0621 H         1 UNK         0.0940 
     87 H87        28.3466   29.2175    0.9270 H         1 UNK         0.0940 
     88 H88        28.6684   28.6601   -2.0690 H         1 UNK         0.0703 
     89 H89        26.5454   27.9751   -0.3284 H         1 UNK         0.3081 
     90 H90        24.0568   28.1335   -1.3121 H         1 UNK         0.0719 
     91 H91        23.5545   28.1283   -3.7301 H         1 UNK         0.0809 
     92 H92        24.3945   26.6009   -3.9460 H         1 UNK         0.0809 
     93 H93        22.9145   26.6707   -2.9900 H         1 UNK         0.0809 
     94 H94        24.5033   26.2175   -0.2667 H         1 UNK         0.2990 
     95 H95        24.8142   23.7920   -0.2297 H         1 UNK         0.0690 
     96 H96        26.5766   22.0517   -0.3510 H         1 UNK         0.0788 
     97 H97        27.5668   23.0821   -1.3841 H         1 UNK         0.0788 
     98 H98        26.0240   22.4692   -1.9641 H         1 UNK         0.0788 
     99 H99        27.5274   24.3244    0.6961 H         1 UNK         0.2993 
    100 H100       27.4413   26.4859    2.6705 H         1 UNK         0.0949 
    101 H101       25.6483   24.7718    4.4625 H         1 UNK         0.0767 
    102 H102       26.9046   25.8642    5.0426 H         1 UNK         0.0767 
    103 H103       25.5132   26.5003    4.1814 H         1 UNK         0.0767 
    104 H104       28.9996   24.9147    2.8460 H         1 UNK         0.3013 
    105 H105       29.6716   30.6411   -2.5183 H         1 UNK         0.3121 
    106 H106       27.9326   32.9203   -2.8416 H         1 UNK         0.0774 
    107 H107       29.9334   33.9012   -3.9596 H         1 UNK         0.0815 
    108 H108       30.9321   32.5737   -3.3868 H         1 UNK         0.0815 
    109 H109       29.6317   32.2741   -4.5422 H         1 UNK         0.0815 
    110 H110       29.8483   31.9364   -0.2044 H         1 UNK         0.2987 
    111 H111       29.5543   34.5001    1.1609 H         1 UNK         0.0949 
    112 H112       31.9154   34.5723    0.2354 H         1 UNK         0.0806 
    113 H113       31.9218   34.4304    1.9838 H         1 UNK         0.0806 
    114 H114       32.2538   33.0168    0.9923 H         1 UNK         0.0806 
    115 H115       30.2022   34.0263    3.5656 H         1 UNK         0.3010 
    116 H116       28.5661   31.9289    4.5607 H         1 UNK         0.0829 
    117 H117       29.0155   34.0295    5.8242 H         1 UNK         0.0813 
    118 H118       29.4999   32.6382    6.7784 H         1 UNK         0.0813 
    119 H119       30.7224   33.6062    5.9677 H         1 UNK         0.0813 
    120 H120       29.0255   29.9413    5.4320 H         1 UNK         0.3038 
    121 H121       31.3100   28.5134    4.4221 H         1 UNK         0.0769 
    122 H122       30.1200   26.5518    5.3805 H         1 UNK         0.0811 
    123 H123       29.0228   27.5545    4.4541 H         1 UNK         0.0811 
    124 H124       28.9989   27.6114    6.2176 H         1 UNK         0.0811 
    125 H125       32.4628   30.3628    5.9458 H         1 UNK         0.3204 
    126 H126       33.0513   29.6920    8.6587 H         1 UNK         0.0748 
    127 H127       34.9094   31.3466    8.3661 H         1 UNK         0.0771 
    128 H128       34.6539   31.3417    6.6257 H         1 UNK         0.0771 
    129 H129       33.4033   31.9603    7.7043 H         1 UNK         0.0771 
    130 H130       34.2000   28.3115    5.7160 H         1 UNK         0.2980 
    131 H131       36.5821   27.0418    6.6835 H         1 UNK         0.0545 
    132 H132       33.5937   24.7361    8.0929 H         1 UNK         0.3459 
    133 H133       33.2638   26.3535    7.5206 H         1 UNK         0.3459 
    134 H134       36.3808   27.3852    4.3147 H         1 UNK         0.0616 
    135 H135       36.3638   25.6680    4.5845 H         1 UNK         0.0616 
    136 H136       35.4415   25.6307    1.9418 H         1 UNK         0.0634 
    137 H137       34.9648   24.3525    3.0402 H         1 UNK         0.0634 
@<TRIPOS>BOND
     1    1    2 1    
     2    1   72 1    
     3    1   73 1    
     4    1   74 1    
     5    2    3 2    
     6    2    4 am   BACKBONE|DICT|INTERRES
     7    4    5 1    
     8    4   75 1    
     9    5    6 1    
    10    5   35 1    
    11    5   76 1    
    12    6    7 1    
    13    6   77 1    
    14    6   78 1    
    15    7    8 1    
    16    8    9 1    
    17    8   79 1    
    18    8   80 1    
    19    9   10 ar   
    20    9   14 ar   
    21   10   11 ar   
    22   10   81 1    
    23   11   12 ar   
    24   11   71 1    
    25   12   13 ar   
    26   12   82 1    
    27   13   14 ar   
    28   13   15 1    
    29   14   83 1    
    30   15   16 1    
    31   15   84 1    
    32   15   85 1    
    33   16   17 1    
    34   17   18 1    
    35   17   86 1    
    36   17   87 1    
    37   18   19 1    
    38   18   37 1    
    39   18   88 1    
    40   19   20 am   BACKBONE|DICT|INTERRES
    41   19   89 1    
    42   20   21 2    
    43   20   22 1    
    44   22   23 1    
    45   22   24 1    
    46   22   90 1    
    47   23   91 1    
    48   23   92 1    
    49   23   93 1    
    50   24   25 am   BACKBONE|DICT|INTERRES
    51   24   94 1    
    52   25   26 2    
    53   25   27 1    
    54   27   28 1    
    55   27   29 1    
    56   27   95 1    
    57   28   96 1    
    58   28   97 1    
    59   28   98 1    
    60   29   30 am   BACKBONE|DICT|INTERRES
    61   29   99 1    
    62   30   31 2    
    63   30   32 1    
    64   32   33 1    
    65   32   34 1    
    66   32  100 1    
    67   33  101 1    
    68   33  102 1    
    69   33  103 1    
    70   34   35 am   BACKBONE|DICT|INTERRES
    71   34  104 1    
    72   35   36 2    
    73   37   38 2    
    74   37   39 am   BACKBONE|DICT|INTERRES
    75   39   40 1    
    76   39  105 1    
    77   40   41 1    
    78   40   42 1    
    79   40  106 1    
    80   41  107 1    
    81   41  108 1    
    82   41  109 1    
    83   42   43 2    
    84   42   44 am   BACKBONE|DICT|INTERRES
    85   44   45 1    
    86   44  110 1    
    87   45   46 1    
    88   45   47 1    
    89   45  111 1    
    90   46  112 1    
    91   46  113 1    
    92   46  114 1    
    93   47   48 2    
    94   47   49 am   BACKBONE|DICT|INTERRES
    95   49   50 1    
    96   49  115 1    
    97   50   51 1    
    98   50   52 1    
    99   50  116 1    
   100   51  117 1    
   101   51  118 1    
   102   51  119 1    
   103   52   53 2    
   104   52   54 am   BACKBONE|DICT|INTERRES
   105   54   55 1    
   106   54  120 1    
   107   55   56 1    
   108   55   57 1    
   109   55  121 1    
   110   56  122 1    
   111   56  123 1    
   112   56  124 1    
   113   57   58 2    
   114   57   59 am   BACKBONE|DICT|INTERRES
   115   59   60 1    
   116   59  125 1    
   117   60   61 1    
   118   60   62 1    
   119   60  126 1    
   120   61  127 1    
   121   61  128 1    
   122   61  129 1    
   123   62   63 2    
   124   62   64 am   BACKBONE|DICT|INTERRES
   125   64   65 1    
   126   64  130 1    
   127   65   66 1    
   128   65   69 1    
   129   65  131 1    
   130   66   67 am   BACKBONE|DICT|INTERRES
   131   66   68 2    
   132   67  132 1    
   133   67  133 1    
   134   69   70 1    
   135   69  134 1    
   136   69  135 1    
   137   70   71 1    
   138   71  136 1    
   139   71  137 1    
@<TRIPOS>SUBSTRUCTURE
     1 UNK         1 GROUP             0       ****    0 ROOT    
