@<TRIPOS>MOLECULE
3R136
137   139    1
SMALL
USER_CHARGES


@<TRIPOS>ATOM
      1 CA         27.7432   22.2014   -1.3075 C.3       0 UNK        -0.1979 
      2 C          27.7257   22.2861    0.2120 C.2       0 UNK         0.4864 
      3 O          27.1718   21.3972    0.8595 O.2       0 UNK        -0.5359 
      4 N          28.3434   23.3384    0.7655 N.am      1 UNK        -0.4318 
      5 CA         28.3989   23.7149    2.1809 C.3       1 UNK         0.0824 
      6 C6         28.8660   22.5811    3.1375 C.3       12 UNK        -0.0944 
      7 S7         29.9067   23.2158    4.4971 S.3       12 UNK        -0.2672 
      8 C8         31.5532   22.5559    4.0761 C.3       12 UNK         0.0333 
      9 C9         32.2894   23.4092    3.0494 C.ar      12 UNK        -0.0807 
     10 C10        33.3584   24.2233    3.4420 C.ar      12 UNK        -0.0894 
     11 C11        34.0855   24.9514    2.4934 C.ar      12 UNK        -0.0804 
     12 C12        33.7162   24.8857    1.1467 C.ar      12 UNK        -0.0824 
     13 C13        32.6364   24.0955    0.7457 C.ar      12 UNK        -0.0762 
     14 C14        31.9403   23.3466    1.6973 C.ar      12 UNK        -0.0782 
     15 C15        32.2296   24.0296   -0.7177 C.3       12 UNK         0.0230 
     16 S16        30.6791   24.9299   -1.0184 S.3       12 UNK        -0.2608 
     17 C17        31.2273   26.6704   -0.8892 C.3       12 UNK        -0.0989 
     18 CA         30.0758   27.7130   -0.8917 C.3       5 UNK         0.0716 
     19 N          29.0308   27.3839   -1.8596 N.am      5 UNK        -0.4135 
     20 C          28.1033   28.2245   -2.3300 C.2       4 UNK         0.5031 
     21 O          28.0971   29.4357   -2.1069 O.2       4 UNK        -0.5229 
     22 CA         26.9790   27.6111   -3.1855 C.3       4 UNK         0.0329 
     23 CB         27.4833   26.5400   -4.1793 C.3       4 UNK        -0.2001 
     24 N          25.8744   27.1083   -2.3580 N.am      4 UNK        -0.4303 
     25 C          25.9216   26.1192   -1.4544 C.2       3 UNK         0.5044 
     26 O          26.9108   25.4133   -1.2465 O.2       3 UNK        -0.5152 
     27 CA         24.6385   25.8597   -0.6486 C.3       3 UNK         0.0319 
     28 CB         23.9919   24.5306   -1.0697 C.3       3 UNK        -0.2001 
     29 N          24.9683   25.8041    0.7728 N.am      3 UNK        -0.4354 
     30 C          25.2321   26.8749    1.5324 C.2       2 UNK         0.4964 
     31 O          24.9983   28.0335    1.1878 O.2       2 UNK        -0.5047 
     32 CA         25.9408   26.6195    2.8711 C.3       2 UNK         0.0288 
     33 CB         24.9653   26.2189    3.9955 C.3       2 UNK        -0.2113 
     34 N          27.0662   25.6908    2.7054 N.am      2 UNK        -0.4145 
     35 C          27.0607   24.3559    2.5978 C.2       1 UNK         0.5006 
     36 O          26.0549   23.6588    2.7432 O.2       1 UNK        -0.5103 
     37 C          29.4274   27.9006    0.4933 C.2       5 UNK         0.5055 
     38 O          28.8887   26.9464    1.0527 O.2       5 UNK        -0.5220 
     39 N          29.4703   29.1289    1.0202 N.am      6 UNK        -0.4450 
     40 CA         28.6840   29.6082    2.1613 C.3       6 UNK         0.0367 
     41 CB         28.5992   31.1417    2.0780 C.3       6 UNK        -0.1929 
     42 C          29.1582   29.1308    3.5513 C.2       6 UNK         0.5070 
     43 O          28.8298   29.7746    4.5499 O.2       6 UNK        -0.5237 
     44 N          29.8947   28.0113    3.6069 N.am      7 UNK        -0.4739 
     45 CA         30.3940   27.3334    4.8088 C.3       7 UNK         0.0276 
     46 CB         29.2248   26.6291    5.5364 C.3       7 UNK        -0.1927 
     47 C          31.2039   28.2865    5.7097 C.2       7 UNK         0.5013 
     48 O          32.2368   28.7936    5.2717 O.2       7 UNK        -0.5193 
     49 N          30.7072   28.5444    6.9281 N.am      8 UNK        -0.4253 
     50 CA         31.3008   29.4391    7.9243 C.3       8 UNK         0.0242 
     51 CB         30.4606   29.3929    9.2105 C.3       8 UNK        -0.2000 
     52 C          31.4792   30.8933    7.4523 C.2       8 UNK         0.4948 
     53 O          32.3944   31.5637    7.9324 O.2       8 UNK        -0.5275 
     54 N          30.6585   31.3550    6.4965 N.am      9 UNK        -0.4246 
     55 CA         30.7749   32.6753    5.8700 C.3       9 UNK         0.0261 
     56 CB         29.3896   33.1313    5.3794 C.3       9 UNK        -0.1959 
     57 C          31.8486   32.6877    4.7611 C.2       9 UNK         0.5033 
     58 O          31.5688   33.0959    3.6331 O.2       9 UNK        -0.5390 
     59 N          33.0624   32.2465    5.1205 N.am      10 UNK        -0.4215 
     60 CA         34.2920   32.2150    4.3204 C.3       10 UNK         0.0240 
     61 CB         34.7856   33.6515    4.0401 C.3       10 UNK        -0.1982 
     62 C          34.2165   31.3503    3.0437 C.2       10 UNK         0.4970 
     63 O          34.8926   31.6712    2.0640 O.2       10 UNK        -0.4916 
     64 N          33.4451   30.2539    3.0865 N.am      11 UNK        -0.4279 
     65 CA         33.3220   29.2422    2.0231 C.3       11 UNK         0.1003 
     66 C          32.8615   29.8394    0.6569 C.2       11 UNK         0.5709 
     67 N          33.4436   29.4435   -0.4685 N.am      11 UNK        -0.7358 
     68 O          31.9086   30.6130    0.6008 O.2       11 UNK        -0.4999 
     69 C69        34.5791   28.3264    1.9428 C.3       12 UNK        -0.0954 
     70 S70        34.8816   27.4267    3.5025 S.3       12 UNK        -0.2268 
     71 C71        35.3065   25.7578    2.9164 C.3       12 UNK         0.0203 
     72 H72        28.3004   23.0243   -1.7552 H         1 UNK         0.0888 
     73 H73        28.2021   21.2669   -1.6287 H         1 UNK         0.0888 
     74 H74        26.7257   22.2361   -1.6956 H         1 UNK         0.0888 
     75 H75        28.7305   24.0372    0.1414 H         1 UNK         0.3017 
     76 H76        29.1612   24.4960    2.2045 H         1 UNK         0.0873 
     77 H77        28.0194   22.0402    3.5648 H         1 UNK         0.0745 
     78 H78        29.4290   21.8245    2.5913 H         1 UNK         0.0745 
     79 H79        31.4655   21.5301    3.7154 H         1 UNK         0.0705 
     80 H80        32.1374   22.4959    4.9956 H         1 UNK         0.0705 
     81 H81        33.6473   24.2679    4.4833 H         1 UNK         0.1334 
     82 H82        34.2784   25.4362    0.4055 H         1 UNK         0.1417 
     83 H83        31.1260   22.7141    1.3760 H         1 UNK         0.1562 
     84 H84        32.0931   22.9867   -1.0071 H         1 UNK         0.0748 
     85 H85        33.0137   24.4265   -1.3645 H         1 UNK         0.0748 
     86 H86        31.8541   26.7909   -0.0040 H         1 UNK         0.0940 
     87 H87        31.8829   26.8655   -1.7392 H         1 UNK         0.0940 
     88 H88        30.5096   28.6698   -1.1905 H         1 UNK         0.0703 
     89 H89        28.8741   26.3936   -1.9962 H         1 UNK         0.3081 
     90 H90        26.5651   28.4277   -3.7795 H         1 UNK         0.0719 
     91 H91        27.8604   25.6449   -3.6845 H         1 UNK         0.0809 
     92 H92        26.6859   26.2288   -4.8541 H         1 UNK         0.0809 
     93 H93        28.2913   26.9338   -4.7972 H         1 UNK         0.0809 
     94 H94        25.0144   27.6343   -2.4319 H         1 UNK         0.2990 
     95 H95        23.9235   26.6672   -0.8207 H         1 UNK         0.0690 
     96 H96        24.6618   23.6854   -0.9046 H         1 UNK         0.0788 
     97 H97        23.7340   24.5408   -2.1295 H         1 UNK         0.0788 
     98 H98        23.0733   24.3431   -0.5134 H         1 UNK         0.0788 
     99 H99        25.2237   24.8970    1.1436 H         1 UNK         0.2993 
    100 H100       26.3942   27.5645    3.1715 H         1 UNK         0.0949 
    101 H101       24.3755   25.3389    3.7384 H         1 UNK         0.0767 
    102 H102       25.4959   26.0109    4.9247 H         1 UNK         0.0767 
    103 H103       24.2607   27.0266    4.1965 H         1 UNK         0.0767 
    104 H104       27.9129   26.1518    2.3751 H         1 UNK         0.3013 
    105 H105       30.0407   29.8329    0.5619 H         1 UNK         0.3121 
    106 H106       27.6701   29.2244    2.0362 H         1 UNK         0.0774 
    107 H107       27.8853   31.5342    2.8024 H         1 UNK         0.0815 
    108 H108       29.5661   31.6076    2.2748 H         1 UNK         0.0815 
    109 H109       28.2621   31.4697    1.0945 H         1 UNK         0.0815 
    110 H110       30.0853   27.5486    2.7279 H         1 UNK         0.2987 
    111 H111       31.0917   26.5643    4.4719 H         1 UNK         0.0949 
    112 H112       28.4629   27.3302    5.8792 H         1 UNK         0.0806 
    113 H113       28.7308   25.9166    4.8792 H         1 UNK         0.0806 
    114 H114       29.5778   26.0625    6.3992 H         1 UNK         0.0806 
    115 H115       29.8337   28.1060    7.1806 H         1 UNK         0.3010 
    116 H116       32.2965   29.0525    8.1514 H         1 UNK         0.0829 
    117 H117       30.8943   30.0296    9.9832 H         1 UNK         0.0813 
    118 H118       29.4403   29.7384    9.0388 H         1 UNK         0.0813 
    119 H119       30.4108   28.3829    9.6179 H         1 UNK         0.0813 
    120 H120       29.9781   30.7226    6.0863 H         1 UNK         0.3038 
    121 H121       31.0976   33.3966    6.6241 H         1 UNK         0.0769 
    122 H122       29.4367   34.1286    4.9402 H         1 UNK         0.0811 
    123 H123       28.6725   33.1721    6.1992 H         1 UNK         0.0811 
    124 H124       28.9922   32.4590    4.6220 H         1 UNK         0.0811 
    125 H125       33.1533   31.9258    6.0802 H         1 UNK         0.3204 
    126 H126       35.0403   31.7334    4.9513 H         1 UNK         0.0748 
    127 H127       35.7744   33.6464    3.5798 H         1 UNK         0.0771 
    128 H128       34.1145   34.1829    3.3643 H         1 UNK         0.0771 
    129 H129       34.8637   34.2313    4.9598 H         1 UNK         0.0771 
    130 H130       32.9536   30.0257    3.9456 H         1 UNK         0.2980 
    131 H131       32.4895   28.6079    2.3283 H         1 UNK         0.0545 
    132 H132       33.1315   29.8362   -1.3421 H         1 UNK         0.3459 
    133 H133       34.2359   28.8223   -0.4548 H         1 UNK         0.3459 
    134 H134       34.4661   27.5969    1.1430 H         1 UNK         0.0616 
    135 H135       35.4688   28.9100    1.7013 H         1 UNK         0.0616 
    136 H136       35.8244   25.2327    3.7203 H         1 UNK         0.0634 
    137 H137       36.0232   25.8314    2.0969 H         1 UNK         0.0634 
@<TRIPOS>BOND
     1    1    2 1    
     2    1   72 1    
     3    1   73 1    
     4    1   74 1    
     5    2    3 2    
     6    2    4 am   BACKBONE|DICT|INTERRES
     7    4    5 1    
     8    4   75 1    
     9    5    6 1    
    10    5   35 1    
    11    5   76 1    
    12    6    7 1    
    13    6   77 1    
    14    6   78 1    
    15    7    8 1    
    16    8    9 1    
    17    8   79 1    
    18    8   80 1    
    19    9   10 ar   
    20    9   14 ar   
    21   10   11 ar   
    22   10   81 1    
    23   11   12 ar   
    24   11   71 1    
    25   12   13 ar   
    26   12   82 1    
    27   13   14 ar   
    28   13   15 1    
    29   14   83 1    
    30   15   16 1    
    31   15   84 1    
    32   15   85 1    
    33   16   17 1    
    34   17   18 1    
    35   17   86 1    
    36   17   87 1    
    37   18   19 1    
    38   18   37 1    
    39   18   88 1    
    40   19   20 am   BACKBONE|DICT|INTERRES
    41   19   89 1    
    42   20   21 2    
    43   20   22 1    
    44   22   23 1    
    45   22   24 1    
    46   22   90 1    
    47   23   91 1    
    48   23   92 1    
    49   23   93 1    
    50   24   25 am   BACKBONE|DICT|INTERRES
    51   24   94 1    
    52   25   26 2    
    53   25   27 1    
    54   27   28 1    
    55   27   29 1    
    56   27   95 1    
    57   28   96 1    
    58   28   97 1    
    59   28   98 1    
    60   29   30 am   BACKBONE|DICT|INTERRES
    61   29   99 1    
    62   30   31 2    
    63   30   32 1    
    64   32   33 1    
    65   32   34 1    
    66   32  100 1    
    67   33  101 1    
    68   33  102 1    
    69   33  103 1    
    70   34   35 am   BACKBONE|DICT|INTERRES
    71   34  104 1    
    72   35   36 2    
    73   37   38 2    
    74   37   39 am   BACKBONE|DICT|INTERRES
    75   39   40 1    
    76   39  105 1    
    77   40   41 1    
    78   40   42 1    
    79   40  106 1    
    80   41  107 1    
    81   41  108 1    
    82   41  109 1    
    83   42   43 2    
    84   42   44 am   BACKBONE|DICT|INTERRES
    85   44   45 1    
    86   44  110 1    
    87   45   46 1    
    88   45   47 1    
    89   45  111 1    
    90   46  112 1    
    91   46  113 1    
    92   46  114 1    
    93   47   48 2    
    94   47   49 am   BACKBONE|DICT|INTERRES
    95   49   50 1    
    96   49  115 1    
    97   50   51 1    
    98   50   52 1    
    99   50  116 1    
   100   51  117 1    
   101   51  118 1    
   102   51  119 1    
   103   52   53 2    
   104   52   54 am   BACKBONE|DICT|INTERRES
   105   54   55 1    
   106   54  120 1    
   107   55   56 1    
   108   55   57 1    
   109   55  121 1    
   110   56  122 1    
   111   56  123 1    
   112   56  124 1    
   113   57   58 2    
   114   57   59 am   BACKBONE|DICT|INTERRES
   115   59   60 1    
   116   59  125 1    
   117   60   61 1    
   118   60   62 1    
   119   60  126 1    
   120   61  127 1    
   121   61  128 1    
   122   61  129 1    
   123   62   63 2    
   124   62   64 am   BACKBONE|DICT|INTERRES
   125   64   65 1    
   126   64  130 1    
   127   65   66 1    
   128   65   69 1    
   129   65  131 1    
   130   66   67 am   BACKBONE|DICT|INTERRES
   131   66   68 2    
   132   67  132 1    
   133   67  133 1    
   134   69   70 1    
   135   69  134 1    
   136   69  135 1    
   137   70   71 1    
   138   71  136 1    
   139   71  137 1    
@<TRIPOS>SUBSTRUCTURE
     1 UNK         1 GROUP             0       ****    0 ROOT    
