@<TRIPOS>MOLECULE
3R136
137   139    1
SMALL
USER_CHARGES


@<TRIPOS>ATOM
      1 CA         26.3028   20.2467    3.7410 C.3       0 UNK        -0.1979 
      2 C          26.5806   21.0851    2.5024 C.2       0 UNK         0.4864 
      3 O          25.6534   21.6603    1.9309 O.2       0 UNK        -0.5359 
      4 N          27.8524   21.1702    2.0877 N.am      1 UNK        -0.4318 
      5 CA         28.3078   21.9225    0.9107 C.3       1 UNK         0.0824 
      6 C6         29.7097   21.4629    0.4285 C.3       12 UNK        -0.0944 
      7 S7         31.0173   21.5014    1.7101 S.3       12 UNK        -0.2672 
      8 C8         32.4217   22.2591    0.8226 C.3       12 UNK         0.0333 
      9 C9         32.5737   23.7364    1.1588 C.ar      12 UNK        -0.0807 
     10 C10        33.6321   24.1754    1.9624 C.ar      12 UNK        -0.0894 
     11 C11        33.7633   25.5295    2.2883 C.ar      12 UNK        -0.0804 
     12 C12        32.8116   26.4431    1.8260 C.ar      12 UNK        -0.0824 
     13 C13        31.7510   26.0153    1.0214 C.ar      12 UNK        -0.0762 
     14 C14        31.6529   24.6666    0.6711 C.ar      12 UNK        -0.0782 
     15 C15        30.6661   26.9915    0.6013 C.3       12 UNK         0.0230 
     16 S16        31.2588   28.2861   -0.5325 S.3       12 UNK        -0.2608 
     17 C17        30.0285   29.5861   -0.1635 C.3       12 UNK        -0.0989 
     18 CA         28.8092   29.6515   -1.1243 C.3       5 UNK         0.0716 
     19 N          28.2236   28.3288   -1.3587 N.am      5 UNK        -0.4135 
     20 C          27.8854   27.8339   -2.5562 C.2       4 UNK         0.5031 
     21 O          28.0630   28.4261   -3.6212 O.2       4 UNK        -0.5229 
     22 CA         27.2107   26.4491   -2.5752 C.3       4 UNK         0.0329 
     23 CB         28.2399   25.3628   -2.9265 C.3       4 UNK        -0.2001 
     24 N          26.5398   26.1029   -1.3161 N.am      4 UNK        -0.4303 
     25 C          25.4758   26.7556   -0.8194 C.2       3 UNK         0.5044 
     26 O          24.9426   27.7078   -1.3889 O.2       3 UNK        -0.5152 
     27 CA         24.9410   26.3290    0.5604 C.3       3 UNK         0.0319 
     28 CB         23.7416   25.3823    0.3993 C.3       3 UNK        -0.2001 
     29 N          25.9365   25.6970    1.4284 N.am      3 UNK        -0.4354 
     30 C          27.0828   26.2581    1.8388 C.2       2 UNK         0.4964 
     31 O          27.4447   27.3956    1.5326 O.2       2 UNK        -0.5047 
     32 CA         28.0114   25.3714    2.6871 C.3       2 UNK         0.0288 
     33 CB         27.6333   25.4835    4.1729 C.3       2 UNK        -0.2113 
     34 N          28.0496   23.9533    2.3056 N.am      2 UNK        -0.4145 
     35 C          28.2244   23.4562    1.0697 C.2       1 UNK         0.5006 
     36 O          28.3068   24.1575    0.0608 O.2       1 UNK        -0.5103 
     37 C          27.7491   30.6196   -0.5469 C.2       5 UNK         0.5055 
     38 O          28.1172   31.7124   -0.1152 O.2       5 UNK        -0.5220 
     39 N          26.4788   30.1870   -0.4619 N.am      6 UNK        -0.4450 
     40 CA         25.3689   30.7328    0.3345 C.3       6 UNK         0.0367 
     41 CB         25.0860   32.2198    0.0419 C.3       6 UNK        -0.1929 
     42 C          25.5429   30.4613    1.8410 C.2       6 UNK         0.5070 
     43 O          24.6216   29.9379    2.4678 O.2       6 UNK        -0.5237 
     44 N          26.7233   30.7736    2.3837 N.am      7 UNK        -0.4739 
     45 CA         27.1872   30.3905    3.7130 C.3       7 UNK         0.0276 
     46 CB         26.8226   31.4806    4.7344 C.3       7 UNK        -0.1927 
     47 C          28.7039   30.1938    3.6298 C.2       7 UNK         0.5013 
     48 O          29.3683   30.9406    2.9068 O.2       7 UNK        -0.5193 
     49 N          29.2395   29.2158    4.3711 N.am      8 UNK        -0.4253 
     50 CA         30.6479   28.8003    4.3373 C.3       8 UNK         0.0242 
     51 CB         30.7688   27.3688    4.8916 C.3       8 UNK        -0.2000 
     52 C          31.6149   29.7756    5.0376 C.2       8 UNK         0.4948 
     53 O          32.4466   29.3476    5.8381 O.2       8 UNK        -0.5275 
     54 N          31.5419   31.0673    4.6943 N.am      9 UNK        -0.4246 
     55 CA         32.4068   32.1375    5.2106 C.3       9 UNK         0.0261 
     56 CB         31.9299   33.4840    4.6430 C.3       9 UNK        -0.1959 
     57 C          33.9090   31.9303    4.9256 C.2       9 UNK         0.5033 
     58 O          34.7443   32.4905    5.6361 O.2       9 UNK        -0.5390 
     59 N          34.2204   31.1173    3.9078 N.am      10 UNK        -0.4215 
     60 CA         35.5677   30.6978    3.5296 C.3       10 UNK         0.0240 
     61 CB         35.5215   30.1316    2.0996 C.3       10 UNK        -0.1982 
     62 C          36.2180   29.6826    4.4921 C.2       10 UNK         0.4970 
     63 O          37.4350   29.5104    4.4058 O.2       10 UNK        -0.4916 
     64 N          35.4417   29.0202    5.3642 N.am      11 UNK        -0.4279 
     65 CA         35.9546   27.9897    6.2867 C.3       11 UNK         0.1003 
     66 C          35.2475   27.9096    7.6684 C.2       11 UNK         0.5709 
     67 N          34.0889   28.5180    7.8795 N.am      11 UNK        -0.7358 
     68 O          35.7868   27.3037    8.5920 O.2       11 UNK        -0.4999 
     69 C69        36.1111   26.5992    5.6090 C.3       12 UNK        -0.0954 
     70 S70        34.5607   25.9342    4.9073 S.3       12 UNK        -0.2268 
     71 C71        34.9366   26.0062    3.1309 C.3       12 UNK         0.0203 
     72 H72        25.6129   19.4387    3.4991 H         1 UNK         0.0888 
     73 H73        27.2127   19.8053    4.1471 H         1 UNK         0.0888 
     74 H74        25.8484   20.8622    4.5169 H         1 UNK         0.0888 
     75 H75        28.5806   20.6860    2.5954 H         1 UNK         0.3017 
     76 H76        27.6109   21.6870    0.1030 H         1 UNK         0.0873 
     77 H77        30.0178   22.0432   -0.4431 H         1 UNK         0.0745 
     78 H78        29.6417   20.4338    0.0726 H         1 UNK         0.0745 
     79 H79        32.3148   22.1303   -0.2552 H         1 UNK         0.0705 
     80 H80        33.3281   21.7173    1.0972 H         1 UNK         0.0705 
     81 H81        34.3559   23.4643    2.3369 H         1 UNK         0.1334 
     82 H82        32.8921   27.4868    2.0963 H         1 UNK         0.1417 
     83 H83        30.8398   24.3312    0.0445 H         1 UNK         0.1562 
     84 H84        30.2616   27.4407    1.5069 H         1 UNK         0.0748 
     85 H85        29.8365   26.4668    0.1261 H         1 UNK         0.0748 
     86 H86        30.5544   30.5428   -0.1714 H         1 UNK         0.0940 
     87 H87        29.6897   29.4578    0.8638 H         1 UNK         0.0940 
     88 H88        29.1506   30.0803   -2.0684 H         1 UNK         0.0703 
     89 H89        28.0213   27.7858   -0.5271 H         1 UNK         0.3081 
     90 H90        26.4511   26.4655   -3.3596 H         1 UNK         0.0719 
     91 H91        27.7835   24.3733   -2.9539 H         1 UNK         0.0809 
     92 H92        28.6784   25.5456   -3.9084 H         1 UNK         0.0809 
     93 H93        29.0592   25.3352   -2.2070 H         1 UNK         0.0809 
     94 H94        26.9605   25.3540   -0.7729 H         1 UNK         0.2990 
     95 H95        24.5985   27.2342    1.0665 H         1 UNK         0.0690 
     96 H96        22.9689   25.8326   -0.2258 H         1 UNK         0.0788 
     97 H97        23.2836   25.1539    1.3619 H         1 UNK         0.0788 
     98 H98        24.0315   24.4398   -0.0674 H         1 UNK         0.0788 
     99 H99        25.7468   24.7467    1.7150 H         1 UNK         0.2993 
    100 H100       29.0237   25.7509    2.5580 H         1 UNK         0.0949 
    101 H101       26.6508   25.0534    4.3723 H         1 UNK         0.0767 
    102 H102       28.3573   24.9725    4.8080 H         1 UNK         0.0767 
    103 H103       27.6019   26.5257    4.4928 H         1 UNK         0.0767 
    104 H104       27.9901   23.2872    3.0614 H         1 UNK         0.3013 
    105 H105       26.2701   29.2851   -0.8749 H         1 UNK         0.3121 
    106 H106       24.4883   30.1717    0.0167 H         1 UNK         0.0774 
    107 H107       25.8772   32.8729    0.4103 H         1 UNK         0.0815 
    108 H108       24.1615   32.5362    0.5262 H         1 UNK         0.0815 
    109 H109       24.9709   32.3993   -1.0268 H         1 UNK         0.0815 
    110 H110       27.4374   31.1866    1.7885 H         1 UNK         0.2987 
    111 H111       26.7242   29.4432    3.9995 H         1 UNK         0.0949 
    112 H112       27.2719   32.4403    4.4754 H         1 UNK         0.0806 
    113 H113       25.7433   31.6218    4.7940 H         1 UNK         0.0806 
    114 H114       27.1710   31.2142    5.7330 H         1 UNK         0.0806 
    115 H115       28.6373   28.6929    4.9901 H         1 UNK         0.3010 
    116 H116       30.9636   28.7719    3.2933 H         1 UNK         0.0829 
    117 H117       30.1856   26.6634    4.3063 H         1 UNK         0.0813 
    118 H118       31.8005   27.0185    4.8564 H         1 UNK         0.0813 
    119 H119       30.4394   27.3063    5.9293 H         1 UNK         0.0813 
    120 H120       30.8319   31.3248    4.0114 H         1 UNK         0.3038 
    121 H121       32.2868   32.1594    6.2956 H         1 UNK         0.0769 
    122 H122       31.9981   33.5094    3.5546 H         1 UNK         0.0811 
    123 H123       32.5336   34.3071    5.0279 H         1 UNK         0.0811 
    124 H124       30.8948   33.6867    4.9189 H         1 UNK         0.0811 
    125 H125       33.4581   30.7242    3.3766 H         1 UNK         0.3204 
    126 H126       36.2066   31.5835    3.5229 H         1 UNK         0.0748 
    127 H127       35.1805   30.8833    1.3873 H         1 UNK         0.0771 
    128 H128       36.5103   29.8063    1.7726 H         1 UNK         0.0771 
    129 H129       34.8541   29.2728    2.0240 H         1 UNK         0.0771 
    130 H130       34.4463   29.2047    5.4087 H         1 UNK         0.2980 
    131 H131       36.9629   28.3018    6.5662 H         1 UNK         0.0545 
    132 H132       33.6747   28.4574    8.7951 H         1 UNK         0.3459 
    133 H133       33.5516   28.9300    7.1189 H         1 UNK         0.3459 
    134 H134       36.8630   26.6642    4.8214 H         1 UNK         0.0616 
    135 H135       36.5044   25.8683    6.3176 H         1 UNK         0.0616 
    136 H136       35.2029   27.0285    2.8609 H         1 UNK         0.0634 
    137 H137       35.8157   25.3939    2.9239 H         1 UNK         0.0634 
@<TRIPOS>BOND
     1    1    2 1    
     2    1   72 1    
     3    1   73 1    
     4    1   74 1    
     5    2    3 2    
     6    2    4 am   BACKBONE|DICT|INTERRES
     7    4    5 1    
     8    4   75 1    
     9    5    6 1    
    10    5   35 1    
    11    5   76 1    
    12    6    7 1    
    13    6   77 1    
    14    6   78 1    
    15    7    8 1    
    16    8    9 1    
    17    8   79 1    
    18    8   80 1    
    19    9   10 ar   
    20    9   14 ar   
    21   10   11 ar   
    22   10   81 1    
    23   11   12 ar   
    24   11   71 1    
    25   12   13 ar   
    26   12   82 1    
    27   13   14 ar   
    28   13   15 1    
    29   14   83 1    
    30   15   16 1    
    31   15   84 1    
    32   15   85 1    
    33   16   17 1    
    34   17   18 1    
    35   17   86 1    
    36   17   87 1    
    37   18   19 1    
    38   18   37 1    
    39   18   88 1    
    40   19   20 am   BACKBONE|DICT|INTERRES
    41   19   89 1    
    42   20   21 2    
    43   20   22 1    
    44   22   23 1    
    45   22   24 1    
    46   22   90 1    
    47   23   91 1    
    48   23   92 1    
    49   23   93 1    
    50   24   25 am   BACKBONE|DICT|INTERRES
    51   24   94 1    
    52   25   26 2    
    53   25   27 1    
    54   27   28 1    
    55   27   29 1    
    56   27   95 1    
    57   28   96 1    
    58   28   97 1    
    59   28   98 1    
    60   29   30 am   BACKBONE|DICT|INTERRES
    61   29   99 1    
    62   30   31 2    
    63   30   32 1    
    64   32   33 1    
    65   32   34 1    
    66   32  100 1    
    67   33  101 1    
    68   33  102 1    
    69   33  103 1    
    70   34   35 am   BACKBONE|DICT|INTERRES
    71   34  104 1    
    72   35   36 2    
    73   37   38 2    
    74   37   39 am   BACKBONE|DICT|INTERRES
    75   39   40 1    
    76   39  105 1    
    77   40   41 1    
    78   40   42 1    
    79   40  106 1    
    80   41  107 1    
    81   41  108 1    
    82   41  109 1    
    83   42   43 2    
    84   42   44 am   BACKBONE|DICT|INTERRES
    85   44   45 1    
    86   44  110 1    
    87   45   46 1    
    88   45   47 1    
    89   45  111 1    
    90   46  112 1    
    91   46  113 1    
    92   46  114 1    
    93   47   48 2    
    94   47   49 am   BACKBONE|DICT|INTERRES
    95   49   50 1    
    96   49  115 1    
    97   50   51 1    
    98   50   52 1    
    99   50  116 1    
   100   51  117 1    
   101   51  118 1    
   102   51  119 1    
   103   52   53 2    
   104   52   54 am   BACKBONE|DICT|INTERRES
   105   54   55 1    
   106   54  120 1    
   107   55   56 1    
   108   55   57 1    
   109   55  121 1    
   110   56  122 1    
   111   56  123 1    
   112   56  124 1    
   113   57   58 2    
   114   57   59 am   BACKBONE|DICT|INTERRES
   115   59   60 1    
   116   59  125 1    
   117   60   61 1    
   118   60   62 1    
   119   60  126 1    
   120   61  127 1    
   121   61  128 1    
   122   61  129 1    
   123   62   63 2    
   124   62   64 am   BACKBONE|DICT|INTERRES
   125   64   65 1    
   126   64  130 1    
   127   65   66 1    
   128   65   69 1    
   129   65  131 1    
   130   66   67 am   BACKBONE|DICT|INTERRES
   131   66   68 2    
   132   67  132 1    
   133   67  133 1    
   134   69   70 1    
   135   69  134 1    
   136   69  135 1    
   137   70   71 1    
   138   71  136 1    
   139   71  137 1    
@<TRIPOS>SUBSTRUCTURE
     1 UNK         1 GROUP             0       ****    0 ROOT    
