@<TRIPOS>MOLECULE
3R136
137   139    1
SMALL
USER_CHARGES


@<TRIPOS>ATOM
      1 CA         26.3933   19.0218    3.4955 C.3       0 UNK        -0.1979 
      2 C          26.6697   19.9043    2.2879 C.2       0 UNK         0.4864 
      3 O          25.7763   20.1244    1.4697 O.2       0 UNK        -0.5359 
      4 N          27.8930   20.4372    2.1776 N.am      1 UNK        -0.4318 
      5 CA         28.3897   21.2814    1.0800 C.3       1 UNK         0.0824 
      6 C6         29.9379   21.1960    0.9791 C.3       12 UNK        -0.0944 
      7 S7         30.8046   21.6919    2.5135 S.3       12 UNK        -0.2672 
      8 C8         31.6127   23.2310    1.9762 C.3       12 UNK         0.0333 
      9 C9         31.7404   24.2299    3.1131 C.ar      12 UNK        -0.0807 
     10 C10        32.9960   24.5548    3.6300 C.ar      12 UNK        -0.0894 
     11 C11        33.1217   25.5418    4.6115 C.ar      12 UNK        -0.0804 
     12 C12        31.9774   26.1763    5.1047 C.ar      12 UNK        -0.0824 
     13 C13        30.7121   25.8378    4.6159 C.ar      12 UNK        -0.0762 
     14 C14        30.6014   24.8668    3.6152 C.ar      12 UNK        -0.0782 
     15 C15        29.4708   26.5088    5.1882 C.3       12 UNK         0.0230 
     16 S16        29.0916   28.0880    4.3632 S.3       12 UNK        -0.2608 
     17 C17        28.3700   27.5239    2.7862 C.3       12 UNK        -0.0989 
     18 CA         29.1383   28.0718    1.5567 C.3       5 UNK         0.0716 
     19 N          29.0228   27.1606    0.4217 N.am      5 UNK        -0.4135 
     20 C          29.8737   27.1196   -0.6108 C.2       4 UNK         0.5031 
     21 O          30.8896   27.8145   -0.6783 O.2       4 UNK        -0.5229 
     22 CA         29.5562   26.1442   -1.7606 C.3       4 UNK         0.0329 
     23 CB         30.6137   25.0313   -1.8457 C.3       4 UNK        -0.2001 
     24 N          28.2340   25.5259   -1.6257 N.am      4 UNK        -0.4303 
     25 C          27.1155   25.9884   -2.2035 C.2       3 UNK         0.5044 
     26 O          27.0893   26.9586   -2.9614 O.2       3 UNK        -0.5152 
     27 CA         25.7952   25.2554   -1.8900 C.3       3 UNK         0.0319 
     28 CB         25.4590   24.2569   -3.0094 C.3       3 UNK        -0.2001 
     29 N          25.7857   24.5522   -0.6036 N.am      3 UNK        -0.4354 
     30 C          25.8905   25.1415    0.5960 C.2       2 UNK         0.4964 
     31 O          25.9851   26.3573    0.7540 O.2       2 UNK        -0.5047 
     32 CA         25.9602   24.2212    1.8269 C.3       2 UNK         0.0288 
     33 CB         24.5550   23.9817    2.4009 C.3       2 UNK        -0.2113 
     34 N          26.6136   22.9282    1.5926 N.am      2 UNK        -0.4145 
     35 C          27.8511   22.7368    1.1124 C.2       1 UNK         0.5006 
     36 O          28.5497   23.6627    0.6951 O.2       1 UNK        -0.5103 
     37 C          28.6083   29.4622    1.1598 C.2       5 UNK         0.5055 
     38 O          27.5949   29.5515    0.4621 O.2       5 UNK        -0.5220 
     39 N          29.2511   30.5171    1.6703 N.am      6 UNK        -0.4450 
     40 CA         28.7574   31.8973    1.6046 C.3       6 UNK         0.0367 
     41 CB         29.9273   32.8324    1.2574 C.3       6 UNK        -0.1929 
     42 C          28.0887   32.3214    2.9254 C.2       6 UNK         0.5070 
     43 O          27.9005   33.5186    3.1460 O.2       6 UNK        -0.5237 
     44 N          27.8049   31.3548    3.8138 N.am      7 UNK        -0.4739 
     45 CA         27.3962   31.4815    5.2216 C.3       7 UNK         0.0276 
     46 CB         26.1030   32.3019    5.3966 C.3       7 UNK        -0.1927 
     47 C          28.5427   32.0081    6.0997 C.2       7 UNK         0.5013 
     48 O          28.9320   31.3424    7.0594 O.2       7 UNK        -0.5193 
     49 N          29.1307   33.1418    5.7014 N.am      8 UNK        -0.4253 
     50 CA         30.4007   33.6685    6.1970 C.3       8 UNK         0.0242 
     51 CB         30.4258   35.1921    5.9736 C.3       8 UNK        -0.2000 
     52 C          31.5819   32.9457    5.5169 C.2       8 UNK         0.4948 
     53 O          32.3897   33.5850    4.8405 O.2       8 UNK        -0.5275 
     54 N          31.6446   31.6194    5.7031 N.am      9 UNK        -0.4246 
     55 CA         32.6406   30.6863    5.1712 C.3       9 UNK         0.0261 
     56 CB         34.0219   30.9339    5.8215 C.3       9 UNK        -0.1959 
     57 C          32.6596   30.6521    3.6295 C.2       9 UNK         0.5033 
     58 O          31.7146   30.1309    3.0333 O.2       9 UNK        -0.5390 
     59 N          33.7503   31.1408    3.0204 N.am      10 UNK        -0.4215 
     60 CA         34.1597   31.0355    1.6093 C.3       10 UNK         0.0240 
     61 CB         33.1003   31.5681    0.6283 C.3       10 UNK        -0.1982 
     62 C          34.6254   29.6218    1.2247 C.2       10 UNK         0.4970 
     63 O          35.6980   29.4902    0.6340 O.2       10 UNK        -0.4916 
     64 N          33.8510   28.6042    1.6185 N.am      11 UNK        -0.4279 
     65 CA         34.2120   27.1787    1.5869 C.3       11 UNK         0.1003 
     66 C          34.4431   26.6058    0.1561 C.2       11 UNK         0.5709 
     67 N          33.6850   27.0359   -0.8435 N.am      11 UNK        -0.7358 
     68 O          35.3070   25.7581   -0.0593 O.2       11 UNK        -0.4999 
     69 C69        35.3740   26.8381    2.5722 C.3       12 UNK        -0.0954 
     70 S70        35.0991   27.4390    4.2772 S.3       12 UNK        -0.2268 
     71 C71        34.4968   25.9428    5.1190 C.3       12 UNK         0.0203 
     72 H72        26.0918   18.0264    3.1707 H         1 UNK         0.0888 
     73 H73        27.2707   18.9187    4.1339 H         1 UNK         0.0888 
     74 H74        25.5863   19.4448    4.0931 H         1 UNK         0.0888 
     75 H75        28.5743   20.2571    2.9024 H         1 UNK         0.3017 
     76 H76        27.9965   20.8611    0.1519 H         1 UNK         0.0873 
     77 H77        30.3059   21.7708    0.1272 H         1 UNK         0.0745 
     78 H78        30.2245   20.1651    0.7656 H         1 UNK         0.0745 
     79 H79        31.0441   23.7049    1.1792 H         1 UNK         0.0705 
     80 H80        32.5879   22.9901    1.5505 H         1 UNK         0.0705 
     81 H81        33.8797   24.0674    3.2415 H         1 UNK         0.1334 
     82 H82        32.0730   26.9395    5.8650 H         1 UNK         0.1417 
     83 H83        29.6317   24.5977    3.2199 H         1 UNK         0.1562 
     84 H84        29.6209   26.7023    6.2514 H         1 UNK         0.0748 
     85 H85        28.6089   25.8425    5.1254 H         1 UNK         0.0748 
     86 H86        27.3115   27.7933    2.7603 H         1 UNK         0.0940 
     87 H87        28.3771   26.4353    2.7721 H         1 UNK         0.0940 
     88 H88        30.1989   28.1513    1.8083 H         1 UNK         0.0703 
     89 H89        28.1602   26.6363    0.3616 H         1 UNK         0.3081 
     90 H90        29.6041   26.7190   -2.6877 H         1 UNK         0.0719 
     91 H91        31.6139   25.4469   -1.9686 H         1 UNK         0.0809 
     92 H92        30.6235   24.4144   -0.9487 H         1 UNK         0.0809 
     93 H93        30.4304   24.3771   -2.6981 H         1 UNK         0.0809 
     94 H94        28.1732   24.7411   -0.9841 H         1 UNK         0.2990 
     95 H95        25.0068   26.0105   -1.8579 H         1 UNK         0.0690 
     96 H96        24.4831   23.7969   -2.8524 H         1 UNK         0.0788 
     97 H97        26.2010   23.4600   -3.0760 H         1 UNK         0.0788 
     98 H98        25.4275   24.7544   -3.9799 H         1 UNK         0.0788 
     99 H99        25.7182   23.5453   -0.6352 H         1 UNK         0.2993 
    100 H100       26.5504   24.7434    2.5823 H         1 UNK         0.0949 
    101 H101       24.5986   23.4283    3.3393 H         1 UNK         0.0767 
    102 H102       24.0501   24.9267    2.6075 H         1 UNK         0.0767 
    103 H103       23.9269   23.4197    1.7084 H         1 UNK         0.0767 
    104 H104       26.0844   22.0957    1.8292 H         1 UNK         0.3013 
    105 H105       30.0937   30.3608    2.2273 H         1 UNK         0.3121 
    106 H106       28.0043   31.9992    0.8207 H         1 UNK         0.0774 
    107 H107       29.5952   33.8675    1.1677 H         1 UNK         0.0815 
    108 H108       30.7032   32.8040    2.0238 H         1 UNK         0.0815 
    109 H109       30.3752   32.5610    0.3021 H         1 UNK         0.0815 
    110 H110       28.0399   30.4117    3.5347 H         1 UNK         0.2987 
    111 H111       27.1837   30.4656    5.5599 H         1 UNK         0.0949 
    112 H112       26.2372   33.3524    5.1384 H         1 UNK         0.0806 
    113 H113       25.2971   31.9057    4.7789 H         1 UNK         0.0806 
    114 H114       25.7637   32.2683    6.4326 H         1 UNK         0.0806 
    115 H115       28.7586   33.5699    4.8571 H         1 UNK         0.3010 
    116 H116       30.4746   33.4838    7.2710 H         1 UNK         0.0829 
    117 H117       29.6034   35.6825    6.4948 H         1 UNK         0.0813 
    118 H118       31.3525   35.6272    6.3501 H         1 UNK         0.0813 
    119 H119       30.3507   35.4462    4.9153 H         1 UNK         0.0813 
    120 H120       30.8950   31.1988    6.2420 H         1 UNK         0.3038 
    121 H121       32.3154   29.6909    5.4788 H         1 UNK         0.0769 
    122 H122       34.7627   30.2168    5.4659 H         1 UNK         0.0811 
    123 H123       33.9661   30.8165    6.9037 H         1 UNK         0.0811 
    124 H124       34.4053   31.9352    5.6231 H         1 UNK         0.0811 
    125 H125       34.4473   31.5508    3.6265 H         1 UNK         0.3204 
    126 H126       35.0325   31.6840    1.5165 H         1 UNK         0.0748 
    127 H127       33.4856   31.5684   -0.3920 H         1 UNK         0.0771 
    128 H128       32.1966   30.9587    0.6265 H         1 UNK         0.0771 
    129 H129       32.8263   32.5947    0.8687 H         1 UNK         0.0771 
    130 H130       32.9766   28.8340    2.0769 H         1 UNK         0.2980 
    131 H131       33.3222   26.6616    1.9415 H         1 UNK         0.0545 
    132 H132       33.8470   26.6731   -1.7682 H         1 UNK         0.3459 
    133 H133       32.8893   27.6414   -0.6734 H         1 UNK         0.3459 
    134 H134       35.5476   25.7617    2.6041 H         1 UNK         0.0616 
    135 H135       36.3076   27.2762    2.2159 H         1 UNK         0.0616 
    136 H136       34.4501   26.1366    6.1916 H         1 UNK         0.0634 
    137 H137       35.2143   25.1317    4.9851 H         1 UNK         0.0634 
@<TRIPOS>BOND
     1    1    2 1    
     2    1   72 1    
     3    1   73 1    
     4    1   74 1    
     5    2    3 2    
     6    2    4 am   BACKBONE|DICT|INTERRES
     7    4    5 1    
     8    4   75 1    
     9    5    6 1    
    10    5   35 1    
    11    5   76 1    
    12    6    7 1    
    13    6   77 1    
    14    6   78 1    
    15    7    8 1    
    16    8    9 1    
    17    8   79 1    
    18    8   80 1    
    19    9   10 ar   
    20    9   14 ar   
    21   10   11 ar   
    22   10   81 1    
    23   11   12 ar   
    24   11   71 1    
    25   12   13 ar   
    26   12   82 1    
    27   13   14 ar   
    28   13   15 1    
    29   14   83 1    
    30   15   16 1    
    31   15   84 1    
    32   15   85 1    
    33   16   17 1    
    34   17   18 1    
    35   17   86 1    
    36   17   87 1    
    37   18   19 1    
    38   18   37 1    
    39   18   88 1    
    40   19   20 am   BACKBONE|DICT|INTERRES
    41   19   89 1    
    42   20   21 2    
    43   20   22 1    
    44   22   23 1    
    45   22   24 1    
    46   22   90 1    
    47   23   91 1    
    48   23   92 1    
    49   23   93 1    
    50   24   25 am   BACKBONE|DICT|INTERRES
    51   24   94 1    
    52   25   26 2    
    53   25   27 1    
    54   27   28 1    
    55   27   29 1    
    56   27   95 1    
    57   28   96 1    
    58   28   97 1    
    59   28   98 1    
    60   29   30 am   BACKBONE|DICT|INTERRES
    61   29   99 1    
    62   30   31 2    
    63   30   32 1    
    64   32   33 1    
    65   32   34 1    
    66   32  100 1    
    67   33  101 1    
    68   33  102 1    
    69   33  103 1    
    70   34   35 am   BACKBONE|DICT|INTERRES
    71   34  104 1    
    72   35   36 2    
    73   37   38 2    
    74   37   39 am   BACKBONE|DICT|INTERRES
    75   39   40 1    
    76   39  105 1    
    77   40   41 1    
    78   40   42 1    
    79   40  106 1    
    80   41  107 1    
    81   41  108 1    
    82   41  109 1    
    83   42   43 2    
    84   42   44 am   BACKBONE|DICT|INTERRES
    85   44   45 1    
    86   44  110 1    
    87   45   46 1    
    88   45   47 1    
    89   45  111 1    
    90   46  112 1    
    91   46  113 1    
    92   46  114 1    
    93   47   48 2    
    94   47   49 am   BACKBONE|DICT|INTERRES
    95   49   50 1    
    96   49  115 1    
    97   50   51 1    
    98   50   52 1    
    99   50  116 1    
   100   51  117 1    
   101   51  118 1    
   102   51  119 1    
   103   52   53 2    
   104   52   54 am   BACKBONE|DICT|INTERRES
   105   54   55 1    
   106   54  120 1    
   107   55   56 1    
   108   55   57 1    
   109   55  121 1    
   110   56  122 1    
   111   56  123 1    
   112   56  124 1    
   113   57   58 2    
   114   57   59 am   BACKBONE|DICT|INTERRES
   115   59   60 1    
   116   59  125 1    
   117   60   61 1    
   118   60   62 1    
   119   60  126 1    
   120   61  127 1    
   121   61  128 1    
   122   61  129 1    
   123   62   63 2    
   124   62   64 am   BACKBONE|DICT|INTERRES
   125   64   65 1    
   126   64  130 1    
   127   65   66 1    
   128   65   69 1    
   129   65  131 1    
   130   66   67 am   BACKBONE|DICT|INTERRES
   131   66   68 2    
   132   67  132 1    
   133   67  133 1    
   134   69   70 1    
   135   69  134 1    
   136   69  135 1    
   137   70   71 1    
   138   71  136 1    
   139   71  137 1    
@<TRIPOS>SUBSTRUCTURE
     1 UNK         1 GROUP             0       ****    0 ROOT    
