@<TRIPOS>MOLECULE
3R136
137   139    1
SMALL
USER_CHARGES


@<TRIPOS>ATOM
      1 CA         30.1628   20.3527   -1.9736 C.3       0 UNK        -0.1979 
      2 C          29.8677   21.7227   -2.5666 C.2       0 UNK         0.4864 
      3 O          29.5880   21.8256   -3.7623 O.2       0 UNK        -0.5359 
      4 N          29.9362   22.7742   -1.7414 N.am      1 UNK        -0.4318 
      5 CA         29.6014   24.1533   -2.1051 C.3       1 UNK         0.0824 
      6 C6         30.2560   25.1821   -1.1429 C.3       12 UNK        -0.0944 
      7 S7         30.0175   24.8453    0.6398 S.3       12 UNK        -0.2672 
      8 C8         31.6588   24.1981    1.0993 C.3       12 UNK         0.0333 
      9 C9         31.7641   23.9876    2.6019 C.ar      12 UNK        -0.0807 
     10 C10        32.5586   24.8359    3.3809 C.ar      12 UNK        -0.0894 
     11 C11        32.6192   24.6718    4.7685 C.ar      12 UNK        -0.0804 
     12 C12        31.8800   23.6545    5.3758 C.ar      12 UNK        -0.0824 
     13 C13        31.0716   22.8118    4.6098 C.ar      12 UNK        -0.0762 
     14 C14        31.0414   22.9615    3.2193 C.ar      12 UNK        -0.0782 
     15 C15        30.1685   21.7995    5.2961 C.3       12 UNK         0.0230 
     16 S16        28.4064   22.2258    5.0926 S.3       12 UNK        -0.2608 
     17 C17        28.3000   23.9323    5.7589 C.3       12 UNK        -0.0989 
     18 CA         28.5438   25.0505    4.6984 C.3       5 UNK         0.0716 
     19 N          27.8606   24.8206    3.4233 N.am      5 UNK        -0.4135 
     20 C          26.5401   24.7860    3.2119 C.2       4 UNK         0.5031 
     21 O          25.6827   24.9878    4.0746 O.2       4 UNK        -0.5229 
     22 CA         26.1196   24.4859    1.7642 C.3       4 UNK         0.0329 
     23 CB         24.9475   23.4908    1.7149 C.3       4 UNK        -0.2001 
     24 N          25.7679   25.6743    0.9833 N.am      4 UNK        -0.4303 
     25 C          26.4532   26.8219    0.8776 C.2       3 UNK         0.5044 
     26 O          27.4532   27.1086    1.5377 O.2       3 UNK        -0.5152 
     27 CA         25.9712   27.7702   -0.2329 C.3       3 UNK         0.0319 
     28 CB         26.6110   29.1661   -0.1454 C.3       3 UNK        -0.2001 
     29 N          26.3059   27.1787   -1.5278 N.am      3 UNK        -0.4354 
     30 C          25.5694   26.2614   -2.1684 C.2       2 UNK         0.4964 
     31 O          24.4400   25.9201   -1.8147 O.2       2 UNK        -0.5047 
     32 CA         26.2365   25.5673   -3.3670 C.3       2 UNK         0.0288 
     33 CB         26.1174   26.4300   -4.6342 C.3       2 UNK        -0.2113 
     34 N          27.6471   25.2417   -3.1196 N.am      2 UNK        -0.4145 
     35 C          28.0729   24.3397   -2.2206 C.2       1 UNK         0.5006 
     36 O          27.3162   23.6775   -1.5049 O.2       1 UNK        -0.5103 
     37 C          28.3292   26.4792    5.2494 C.2       5 UNK         0.5055 
     38 O          28.4062   26.6831    6.4624 O.2       5 UNK        -0.5220 
     39 N          28.0821   27.4471    4.3553 N.am      6 UNK        -0.4450 
     40 CA         27.8753   28.8613    4.6693 C.3       6 UNK         0.0367 
     41 CB         26.3936   29.1062    5.0163 C.3       6 UNK        -0.1929 
     42 C          28.3688   29.7383    3.5065 C.2       6 UNK         0.5070 
     43 O          27.7505   30.7566    3.1911 O.2       6 UNK        -0.5237 
     44 N          29.4684   29.3187    2.8672 N.am      7 UNK        -0.4739 
     45 CA         30.0463   29.8961    1.6513 C.3       7 UNK         0.0276 
     46 CB         30.9220   28.8216    0.9803 C.3       7 UNK        -0.1927 
     47 C          30.7839   31.2362    1.8576 C.2       7 UNK         0.5013 
     48 O          31.8947   31.4056    1.3510 O.2       7 UNK        -0.5193 
     49 N          30.1482   32.1741    2.5730 N.am      8 UNK        -0.4253 
     50 CA         30.5675   33.5583    2.8237 C.3       8 UNK         0.0242 
     51 CB         30.3216   34.4152    1.5611 C.3       8 UNK        -0.2000 
     52 C          32.0061   33.6541    3.3689 C.2       8 UNK         0.4948 
     53 O          32.2387   33.3001    4.5237 O.2       8 UNK        -0.5275 
     54 N          32.9500   34.1065    2.5330 N.am      9 UNK        -0.4246 
     55 CA         34.3746   34.2034    2.8567 C.3       9 UNK         0.0261 
     56 CB         35.0818   35.0329    1.7725 C.3       9 UNK        -0.1959 
     57 C          35.0701   32.8395    3.0285 C.2       9 UNK         0.5033 
     58 O          36.0846   32.7777    3.7249 O.2       9 UNK        -0.5390 
     59 N          34.5373   31.7811    2.3998 N.am      10 UNK        -0.4215 
     60 CA         35.0831   30.4243    2.4739 C.3       10 UNK         0.0240 
     61 CB         34.8267   29.6936    1.1452 C.3       10 UNK        -0.1982 
     62 C          34.5317   29.6155    3.6605 C.2       10 UNK         0.4970 
     63 O          35.1501   28.6120    4.0170 O.2       10 UNK        -0.4916 
     64 N          33.4090   30.0412    4.2568 N.am      11 UNK        -0.4279 
     65 CA         32.8123   29.4045    5.4352 C.3       11 UNK         0.1003 
     66 C          31.8510   30.3865    6.1458 C.2       11 UNK         0.5709 
     67 N          32.1769   30.8248    7.3543 N.am      11 UNK        -0.7358 
     68 O          30.7945   30.7253    5.6198 O.2       11 UNK        -0.4999 
     69 C69        32.1284   28.0442    5.1083 C.3       12 UNK        -0.0954 
     70 S70        32.3883   26.8410    6.4508 S.3       12 UNK        -0.2268 
     71 C71        33.4480   25.6100    5.6306 C.3       12 UNK         0.0203 
     72 H72        29.2950   19.7026   -2.0821 H         1 UNK         0.0888 
     73 H73        31.0022   19.8914   -2.4933 H         1 UNK         0.0888 
     74 H74        30.4116   20.4119   -0.9141 H         1 UNK         0.0888 
     75 H75        30.1153   22.6285   -0.7590 H         1 UNK         0.3017 
     76 H76        30.0183   24.3347   -3.0986 H         1 UNK         0.0873 
     77 H77        29.8893   26.1897   -1.3479 H         1 UNK         0.0745 
     78 H78        31.3263   25.2265   -1.3494 H         1 UNK         0.0745 
     79 H79        31.8422   23.2549    0.5832 H         1 UNK         0.0705 
     80 H80        32.4280   24.8936    0.7596 H         1 UNK         0.0705 
     81 H81        33.1164   25.6344    2.9107 H         1 UNK         0.1334 
     82 H82        31.9014   23.5512    6.4523 H         1 UNK         0.1417 
     83 H83        30.4057   22.3184    2.6256 H         1 UNK         0.1562 
     84 H84        30.3967   21.7267    6.3607 H         1 UNK         0.0748 
     85 H85        30.3477   20.8100    4.8735 H         1 UNK         0.0748 
     86 H86        29.0045   24.0340    6.5864 H         1 UNK         0.0940 
     87 H87        27.3069   24.0483    6.1967 H         1 UNK         0.0940 
     88 H88        29.6016   25.0397    4.4463 H         1 UNK         0.0703 
     89 H89        28.4711   24.7034    2.6248 H         1 UNK         0.3081 
     90 H90        26.9647   24.0162    1.2566 H         1 UNK         0.0719 
     91 H91        24.7392   23.1752    0.6922 H         1 UNK         0.0809 
     92 H92        24.0343   23.9214    2.1279 H         1 UNK         0.0809 
     93 H93        25.1745   22.5922    2.2904 H         1 UNK         0.0809 
     94 H94        24.9896   25.5585    0.3468 H         1 UNK         0.2990 
     95 H95        24.8893   27.8861   -0.1374 H         1 UNK         0.0690 
     96 H96        26.1734   29.8473   -0.8752 H         1 UNK         0.0788 
     97 H97        27.6833   29.1221   -0.3322 H         1 UNK         0.0788 
     98 H98        26.4633   29.6070    0.8417 H         1 UNK         0.0788 
     99 H99        27.2335   27.3690   -1.8768 H         1 UNK         0.2993 
    100 H100       25.7024   24.6302   -3.5407 H         1 UNK         0.0949 
    101 H101       26.5101   25.9081   -5.5072 H         1 UNK         0.0767 
    102 H102       25.0741   26.6698   -4.8451 H         1 UNK         0.0767 
    103 H103       26.6553   27.3739   -4.5365 H         1 UNK         0.0767 
    104 H104       28.3289   25.7330   -3.6802 H         1 UNK         0.3013 
    105 H105       27.9926   27.2048    3.3683 H         1 UNK         0.3121 
    106 H106       28.4839   29.1306    5.5351 H         1 UNK         0.0774 
    107 H107       26.2204   30.1477    5.2896 H         1 UNK         0.0815 
    108 H108       25.7439   28.8741    4.1715 H         1 UNK         0.0815 
    109 H109       26.0765   28.4946    5.8610 H         1 UNK         0.0815 
    110 H110       29.9171   28.4849    3.2137 H         1 UNK         0.2987 
    111 H111       29.2267   30.1230    0.9696 H         1 UNK         0.0949 
    112 H112       31.7454   28.5138    1.6253 H         1 UNK         0.0806 
    113 H113       30.3364   27.9339    0.7397 H         1 UNK         0.0806 
    114 H114       31.3499   29.1841    0.0448 H         1 UNK         0.0806 
    115 H115       29.2492   31.9027    2.9642 H         1 UNK         0.3010 
    116 H116       29.9188   33.9393    3.6139 H         1 UNK         0.0829 
    117 H117       29.2638   34.4209    1.2974 H         1 UNK         0.0813 
    118 H118       30.6122   35.4542    1.7239 H         1 UNK         0.0813 
    119 H119       30.8697   34.0444    0.6941 H         1 UNK         0.0813 
    120 H120       32.6766   34.3526    1.5925 H         1 UNK         0.3038 
    121 H121       34.4659   34.7355    3.8062 H         1 UNK         0.0769 
    122 H122       36.1422   35.1505    2.0010 H         1 UNK         0.0811 
    123 H123       34.6566   36.0339    1.6966 H         1 UNK         0.0811 
    124 H124       35.0109   34.5607    0.7917 H         1 UNK         0.0811 
    125 H125       33.6670   31.8884    1.8818 H         1 UNK         0.3204 
    126 H126       36.1657   30.4822    2.6066 H         1 UNK         0.0748 
    127 H127       35.2470   28.6871    1.1643 H         1 UNK         0.0771 
    128 H128       33.7638   29.5973    0.9307 H         1 UNK         0.0771 
    129 H129       35.2883   30.2204    0.3099 H         1 UNK         0.0771 
    130 H130       32.9635   30.8958    3.9497 H         1 UNK         0.2980 
    131 H131       33.6456   29.2194    6.1171 H         1 UNK         0.0545 
    132 H132       33.0346   30.5410    7.8011 H         1 UNK         0.3459 
    133 H133       31.5521   31.4600    7.8248 H         1 UNK         0.3459 
    134 H134       32.5170   27.6255    4.1804 H         1 UNK         0.0616 
    135 H135       31.0559   28.1502    4.9439 H         1 UNK         0.0616 
    136 H136       33.9729   25.0334    6.3935 H         1 UNK         0.0634 
    137 H137       34.2180   26.1118    5.0423 H         1 UNK         0.0634 
@<TRIPOS>BOND
     1    1    2 1    
     2    1   72 1    
     3    1   73 1    
     4    1   74 1    
     5    2    3 2    
     6    2    4 am   BACKBONE|DICT|INTERRES
     7    4    5 1    
     8    4   75 1    
     9    5    6 1    
    10    5   35 1    
    11    5   76 1    
    12    6    7 1    
    13    6   77 1    
    14    6   78 1    
    15    7    8 1    
    16    8    9 1    
    17    8   79 1    
    18    8   80 1    
    19    9   10 ar   
    20    9   14 ar   
    21   10   11 ar   
    22   10   81 1    
    23   11   12 ar   
    24   11   71 1    
    25   12   13 ar   
    26   12   82 1    
    27   13   14 ar   
    28   13   15 1    
    29   14   83 1    
    30   15   16 1    
    31   15   84 1    
    32   15   85 1    
    33   16   17 1    
    34   17   18 1    
    35   17   86 1    
    36   17   87 1    
    37   18   19 1    
    38   18   37 1    
    39   18   88 1    
    40   19   20 am   BACKBONE|DICT|INTERRES
    41   19   89 1    
    42   20   21 2    
    43   20   22 1    
    44   22   23 1    
    45   22   24 1    
    46   22   90 1    
    47   23   91 1    
    48   23   92 1    
    49   23   93 1    
    50   24   25 am   BACKBONE|DICT|INTERRES
    51   24   94 1    
    52   25   26 2    
    53   25   27 1    
    54   27   28 1    
    55   27   29 1    
    56   27   95 1    
    57   28   96 1    
    58   28   97 1    
    59   28   98 1    
    60   29   30 am   BACKBONE|DICT|INTERRES
    61   29   99 1    
    62   30   31 2    
    63   30   32 1    
    64   32   33 1    
    65   32   34 1    
    66   32  100 1    
    67   33  101 1    
    68   33  102 1    
    69   33  103 1    
    70   34   35 am   BACKBONE|DICT|INTERRES
    71   34  104 1    
    72   35   36 2    
    73   37   38 2    
    74   37   39 am   BACKBONE|DICT|INTERRES
    75   39   40 1    
    76   39  105 1    
    77   40   41 1    
    78   40   42 1    
    79   40  106 1    
    80   41  107 1    
    81   41  108 1    
    82   41  109 1    
    83   42   43 2    
    84   42   44 am   BACKBONE|DICT|INTERRES
    85   44   45 1    
    86   44  110 1    
    87   45   46 1    
    88   45   47 1    
    89   45  111 1    
    90   46  112 1    
    91   46  113 1    
    92   46  114 1    
    93   47   48 2    
    94   47   49 am   BACKBONE|DICT|INTERRES
    95   49   50 1    
    96   49  115 1    
    97   50   51 1    
    98   50   52 1    
    99   50  116 1    
   100   51  117 1    
   101   51  118 1    
   102   51  119 1    
   103   52   53 2    
   104   52   54 am   BACKBONE|DICT|INTERRES
   105   54   55 1    
   106   54  120 1    
   107   55   56 1    
   108   55   57 1    
   109   55  121 1    
   110   56  122 1    
   111   56  123 1    
   112   56  124 1    
   113   57   58 2    
   114   57   59 am   BACKBONE|DICT|INTERRES
   115   59   60 1    
   116   59  125 1    
   117   60   61 1    
   118   60   62 1    
   119   60  126 1    
   120   61  127 1    
   121   61  128 1    
   122   61  129 1    
   123   62   63 2    
   124   62   64 am   BACKBONE|DICT|INTERRES
   125   64   65 1    
   126   64  130 1    
   127   65   66 1    
   128   65   69 1    
   129   65  131 1    
   130   66   67 am   BACKBONE|DICT|INTERRES
   131   66   68 2    
   132   67  132 1    
   133   67  133 1    
   134   69   70 1    
   135   69  134 1    
   136   69  135 1    
   137   70   71 1    
   138   71  136 1    
   139   71  137 1    
@<TRIPOS>SUBSTRUCTURE
     1 UNK         1 GROUP             0       ****    0 ROOT    
