@<TRIPOS>MOLECULE
3R136
137   139    1
SMALL
USER_CHARGES


@<TRIPOS>ATOM
      1 CA         28.0477   18.7870    2.5071 C.3       0 UNK        -0.1979 
      2 C          27.9167   20.2584    2.1445 C.2       0 UNK         0.4864 
      3 O          27.0186   20.9326    2.6504 O.2       0 UNK        -0.5359 
      4 N          28.7907   20.7536    1.2541 N.am      1 UNK        -0.4318 
      5 CA         28.8978   22.1579    0.8160 C.3       1 UNK         0.0824 
      6 C6         29.4262   23.1036    1.9322 C.3       12 UNK        -0.0944 
      7 S7         30.9622   22.5168    2.7330 S.3       12 UNK        -0.2672 
      8 C8         32.2143   22.7473    1.4291 C.3       12 UNK         0.0333 
      9 C9         32.3608   24.2066    1.0287 C.ar      12 UNK        -0.0807 
     10 C10        33.0325   25.0979    1.8668 C.ar      12 UNK        -0.0894 
     11 C11        33.1510   26.4529    1.5296 C.ar      12 UNK        -0.0804 
     12 C12        32.6058   26.8984    0.3180 C.ar      12 UNK        -0.0824 
     13 C13        31.9501   26.0081   -0.5413 C.ar      12 UNK        -0.0762 
     14 C14        31.8308   24.6644   -0.1784 C.ar      12 UNK        -0.0782 
     15 C15        31.3957   26.4739   -1.8821 C.3       12 UNK         0.0230 
     16 S16        29.9114   27.5187   -1.7336 S.3       12 UNK        -0.2608 
     17 C17        28.7398   26.4789   -0.7874 C.3       12 UNK        -0.0989 
     18 CA         27.8238   27.3359    0.1218 C.3       5 UNK         0.0716 
     19 N          26.6349   26.5993    0.5628 N.am      5 UNK        -0.4135 
     20 C          25.5325   27.2077    1.0277 C.2       4 UNK         0.5031 
     21 O          25.4435   28.4317    1.1458 O.2       4 UNK        -0.5229 
     22 CA         24.2954   26.3692    1.3868 C.3       4 UNK         0.0329 
     23 CB         23.2299   26.5052    0.2791 C.3       4 UNK        -0.2001 
     24 N          24.5518   24.9497    1.6509 N.am      4 UNK        -0.4303 
     25 C          23.7194   24.1733    2.3657 C.2       3 UNK         0.5044 
     26 O          22.7543   24.6171    2.9918 O.2       3 UNK        -0.5152 
     27 CA         23.9803   22.6498    2.3785 C.3       3 UNK         0.0319 
     28 CB         22.6870   21.8253    2.5518 C.3       3 UNK        -0.2001 
     29 N          24.7443   22.1725    1.2217 N.am      3 UNK        -0.4354 
     30 C          24.4374   22.3007   -0.0813 C.2       2 UNK         0.4964 
     31 O          23.3505   22.7137   -0.4876 O.2       2 UNK        -0.5047 
     32 CA         25.5375   21.9498   -1.1103 C.3       2 UNK         0.0288 
     33 CB         25.5814   22.9707   -2.2683 C.3       2 UNK        -0.2113 
     34 N          26.8798   21.7802   -0.5315 N.am      2 UNK        -0.4145 
     35 C          27.5908   22.6797    0.1704 C.2       1 UNK         0.5006 
     36 O          27.2103   23.8377    0.3701 O.2       1 UNK        -0.5103 
     37 C          28.5919   27.9413    1.3162 C.2       5 UNK         0.5055 
     38 O          28.7022   27.3123    2.3708 O.2       5 UNK        -0.5220 
     39 N          29.1276   29.1436    1.0945 N.am      6 UNK        -0.4450 
     40 CA         30.0314   29.8757    1.9678 C.3       6 UNK         0.0367 
     41 CB         29.2298   30.7992    2.9007 C.3       6 UNK        -0.1929 
     42 C          30.9775   30.6676    1.0598 C.2       6 UNK         0.5070 
     43 O          30.5919   31.0096   -0.0623 O.2       6 UNK        -0.5237 
     44 N          32.1883   30.9501    1.5443 N.am      7 UNK        -0.4739 
     45 CA         33.2170   31.6864    0.8110 C.3       7 UNK         0.0276 
     46 CB         34.0282   30.7233   -0.0742 C.3       7 UNK        -0.1927 
     47 C          34.1205   32.3974    1.8178 C.2       7 UNK         0.5013 
     48 O          34.4172   31.8197    2.8636 O.2       7 UNK        -0.5193 
     49 N          34.5262   33.6369    1.5021 N.am      8 UNK        -0.4253 
     50 CA         35.3852   34.5152    2.3170 C.3       8 UNK         0.0242 
     51 CB         36.8368   33.9889    2.3140 C.3       8 UNK        -0.2000 
     52 C          34.8520   34.7605    3.7476 C.2       8 UNK         0.4948 
     53 O          35.6430   34.9206    4.6786 O.2       8 UNK        -0.5275 
     54 N          33.5168   34.7489    3.8915 N.am      9 UNK        -0.4246 
     55 CA         32.7450   34.7884    5.1414 C.3       9 UNK         0.0261 
     56 CB         32.9530   36.1273    5.8823 C.3       9 UNK        -0.1959 
     57 C          32.9572   33.5633    6.0609 C.2       9 UNK         0.5033 
     58 O          32.6097   33.6356    7.2416 O.2       9 UNK        -0.5390 
     59 N          33.4911   32.4606    5.5192 N.am      10 UNK        -0.4215 
     60 CA         33.6897   31.1845    6.2010 C.3       10 UNK         0.0240 
     61 CB         35.1624   30.7655    6.0413 C.3       10 UNK        -0.1982 
     62 C          32.7574   30.1205    5.6028 C.2       10 UNK         0.4970 
     63 O          32.1781   30.3257    4.5329 O.2       10 UNK        -0.4916 
     64 N          32.6513   28.9957    6.3191 N.am      11 UNK        -0.4279 
     65 CA         31.8380   27.8062    6.0029 C.3       11 UNK         0.1003 
     66 C          30.3081   27.9719    6.2497 C.2       11 UNK         0.5709 
     67 N          29.8251   29.1162    6.7194 N.am      11 UNK        -0.7358 
     68 O          29.5473   27.0263    6.0605 O.2       11 UNK        -0.4999 
     69 C69        32.1300   27.1699    4.6118 C.3       12 UNK        -0.0954 
     70 S70        33.9026   27.0031    4.2095 S.3       12 UNK        -0.2268 
     71 C71        33.8891   27.4446    2.4340 C.3       12 UNK         0.0203 
     72 H72        28.8710   18.3075    1.9780 H         1 UNK         0.0888 
     73 H73        28.2250   18.6811    3.5770 H         1 UNK         0.0888 
     74 H74        27.1289   18.2562    2.2593 H         1 UNK         0.0888 
     75 H75        29.4950   20.1352    0.8756 H         1 UNK         0.3017 
     76 H76        29.6285   22.1646    0.0071 H         1 UNK         0.0873 
     77 H77        29.5961   24.1100    1.5476 H         1 UNK         0.0745 
     78 H78        28.6736   23.2142    2.7151 H         1 UNK         0.0745 
     79 H79        33.1726   22.3774    1.7964 H         1 UNK         0.0705 
     80 H80        31.9646   22.1277    0.5670 H         1 UNK         0.0705 
     81 H81        33.4523   24.7236    2.7896 H         1 UNK         0.1334 
     82 H82        32.6972   27.9383    0.0358 H         1 UNK         0.1417 
     83 H83        31.3240   23.9732   -0.8377 H         1 UNK         0.1562 
     84 H84        31.1588   25.6213   -2.5206 H         1 UNK         0.0748 
     85 H85        32.1668   27.0380   -2.4086 H         1 UNK         0.0748 
     86 H86        29.2664   25.7295   -0.1976 H         1 UNK         0.0940 
     87 H87        28.1391   25.9238   -1.5099 H         1 UNK         0.0940 
     88 H88        27.4559   28.1642   -0.4893 H         1 UNK         0.0703 
     89 H89        26.7063   25.5865    0.5206 H         1 UNK         0.3081 
     90 H90        23.8970   26.8186    2.2992 H         1 UNK         0.0719 
     91 H91        23.5478   26.0152   -0.6421 H         1 UNK         0.0809 
     92 H92        22.2798   26.0636    0.5798 H         1 UNK         0.0809 
     93 H93        23.0338   27.5523    0.0434 H         1 UNK         0.0809 
     94 H94        25.3440   24.5176    1.1905 H         1 UNK         0.2990 
     95 H95        24.6101   22.4627    3.2495 H         1 UNK         0.0690 
     96 H96        22.8981   20.7561    2.5672 H         1 UNK         0.0788 
     97 H97        21.9751   22.0160    1.7480 H         1 UNK         0.0788 
     98 H98        22.1890   22.0681    3.4912 H         1 UNK         0.0788 
     99 H99        25.6555   21.7929    1.4632 H         1 UNK         0.2993 
    100 H100       25.2581   20.9815   -1.5283 H         1 UNK         0.0949 
    101 H101       26.3533   22.7146   -2.9940 H         1 UNK         0.0767 
    102 H102       24.6324   22.9973   -2.8053 H         1 UNK         0.0767 
    103 H103       25.7792   23.9821   -1.9113 H         1 UNK         0.0767 
    104 H104       27.2678   20.8501   -0.6109 H         1 UNK         0.3013 
    105 H105       29.0577   29.5529    0.1692 H         1 UNK         0.3121 
    106 H106       30.6199   29.1737    2.5555 H         1 UNK         0.0774 
    107 H107       29.8940   31.3811    3.5405 H         1 UNK         0.0815 
    108 H108       28.6141   31.5032    2.3398 H         1 UNK         0.0815 
    109 H109       28.5743   30.2238    3.5546 H         1 UNK         0.0815 
    110 H110       32.4212   30.7072    2.5057 H         1 UNK         0.2987 
    111 H111       32.7416   32.4403    0.1791 H         1 UNK         0.0949 
    112 H112       34.5127   29.9452    0.5168 H         1 UNK         0.0806 
    113 H113       33.3953   30.2373   -0.8168 H         1 UNK         0.0806 
    114 H114       34.8107   31.2560   -0.6161 H         1 UNK         0.0806 
    115 H115       34.2216   34.0284    0.6207 H         1 UNK         0.3010 
    116 H116       35.3857   35.4898    1.8263 H         1 UNK         0.0829 
    117 H117       37.2039   33.8411    1.2985 H         1 UNK         0.0813 
    118 H118       37.5122   34.6935    2.8009 H         1 UNK         0.0813 
    119 H119       36.9213   33.0387    2.8429 H         1 UNK         0.0813 
    120 H120       32.9680   34.6169    3.0532 H         1 UNK         0.3038 
    121 H121       31.6972   34.7456    4.8405 H         1 UNK         0.0769 
    122 H122       33.9595   36.2118    6.2930 H         1 UNK         0.0811 
    123 H123       32.2558   36.2269    6.7151 H         1 UNK         0.0811 
    124 H124       32.7871   36.9777    5.2212 H         1 UNK         0.0811 
    125 H125       33.7196   32.4437    4.5278 H         1 UNK         0.3204 
    126 H126       33.4647   31.2792    7.2652 H         1 UNK         0.0748 
    127 H127       35.3775   29.8519    6.5966 H         1 UNK         0.0771 
    128 H128       35.4188   30.5777    4.9978 H         1 UNK         0.0771 
    129 H129       35.8355   31.5372    6.4154 H         1 UNK         0.0771 
    130 H130       33.1651   28.9339    7.1858 H         1 UNK         0.2980 
    131 H131       32.1492   27.0714    6.7460 H         1 UNK         0.0545 
    132 H132       30.4358   29.8986    6.8869 H         1 UNK         0.3459 
    133 H133       28.8360   29.1987    6.8918 H         1 UNK         0.3459 
    134 H134       31.6862   26.1744    4.5527 H         1 UNK         0.0616 
    135 H135       31.6466   27.7499    3.8293 H         1 UNK         0.0616 
    136 H136       33.4561   28.4408    2.3325 H         1 UNK         0.0634 
    137 H137       34.9214   27.5203    2.0908 H         1 UNK         0.0634 
@<TRIPOS>BOND
     1    1    2 1    
     2    1   72 1    
     3    1   73 1    
     4    1   74 1    
     5    2    3 2    
     6    2    4 am   BACKBONE|DICT|INTERRES
     7    4    5 1    
     8    4   75 1    
     9    5    6 1    
    10    5   35 1    
    11    5   76 1    
    12    6    7 1    
    13    6   77 1    
    14    6   78 1    
    15    7    8 1    
    16    8    9 1    
    17    8   79 1    
    18    8   80 1    
    19    9   10 ar   
    20    9   14 ar   
    21   10   11 ar   
    22   10   81 1    
    23   11   12 ar   
    24   11   71 1    
    25   12   13 ar   
    26   12   82 1    
    27   13   14 ar   
    28   13   15 1    
    29   14   83 1    
    30   15   16 1    
    31   15   84 1    
    32   15   85 1    
    33   16   17 1    
    34   17   18 1    
    35   17   86 1    
    36   17   87 1    
    37   18   19 1    
    38   18   37 1    
    39   18   88 1    
    40   19   20 am   BACKBONE|DICT|INTERRES
    41   19   89 1    
    42   20   21 2    
    43   20   22 1    
    44   22   23 1    
    45   22   24 1    
    46   22   90 1    
    47   23   91 1    
    48   23   92 1    
    49   23   93 1    
    50   24   25 am   BACKBONE|DICT|INTERRES
    51   24   94 1    
    52   25   26 2    
    53   25   27 1    
    54   27   28 1    
    55   27   29 1    
    56   27   95 1    
    57   28   96 1    
    58   28   97 1    
    59   28   98 1    
    60   29   30 am   BACKBONE|DICT|INTERRES
    61   29   99 1    
    62   30   31 2    
    63   30   32 1    
    64   32   33 1    
    65   32   34 1    
    66   32  100 1    
    67   33  101 1    
    68   33  102 1    
    69   33  103 1    
    70   34   35 am   BACKBONE|DICT|INTERRES
    71   34  104 1    
    72   35   36 2    
    73   37   38 2    
    74   37   39 am   BACKBONE|DICT|INTERRES
    75   39   40 1    
    76   39  105 1    
    77   40   41 1    
    78   40   42 1    
    79   40  106 1    
    80   41  107 1    
    81   41  108 1    
    82   41  109 1    
    83   42   43 2    
    84   42   44 am   BACKBONE|DICT|INTERRES
    85   44   45 1    
    86   44  110 1    
    87   45   46 1    
    88   45   47 1    
    89   45  111 1    
    90   46  112 1    
    91   46  113 1    
    92   46  114 1    
    93   47   48 2    
    94   47   49 am   BACKBONE|DICT|INTERRES
    95   49   50 1    
    96   49  115 1    
    97   50   51 1    
    98   50   52 1    
    99   50  116 1    
   100   51  117 1    
   101   51  118 1    
   102   51  119 1    
   103   52   53 2    
   104   52   54 am   BACKBONE|DICT|INTERRES
   105   54   55 1    
   106   54  120 1    
   107   55   56 1    
   108   55   57 1    
   109   55  121 1    
   110   56  122 1    
   111   56  123 1    
   112   56  124 1    
   113   57   58 2    
   114   57   59 am   BACKBONE|DICT|INTERRES
   115   59   60 1    
   116   59  125 1    
   117   60   61 1    
   118   60   62 1    
   119   60  126 1    
   120   61  127 1    
   121   61  128 1    
   122   61  129 1    
   123   62   63 2    
   124   62   64 am   BACKBONE|DICT|INTERRES
   125   64   65 1    
   126   64  130 1    
   127   65   66 1    
   128   65   69 1    
   129   65  131 1    
   130   66   67 am   BACKBONE|DICT|INTERRES
   131   66   68 2    
   132   67  132 1    
   133   67  133 1    
   134   69   70 1    
   135   69  134 1    
   136   69  135 1    
   137   70   71 1    
   138   71  136 1    
   139   71  137 1    
@<TRIPOS>SUBSTRUCTURE
     1 UNK         1 GROUP             0       ****    0 ROOT    
