@<TRIPOS>MOLECULE
3R136
137   139    1
SMALL
USER_CHARGES


@<TRIPOS>ATOM
      1 CA         27.5701   21.1393    0.9491 C.3       0 UNK        -0.1979 
      2 C          29.0334   21.3315    0.5795 C.2       0 UNK         0.4864 
      3 O          29.8628   20.4776    0.8974 O.2       0 UNK        -0.5359 
      4 N          29.3521   22.4477   -0.0803 N.am      1 UNK        -0.4318 
      5 CA         30.7015   22.8403   -0.4820 C.3       1 UNK         0.0824 
      6 C6         31.4726   23.5735    0.6526 C.3       12 UNK        -0.0944 
      7 S7         30.5953   25.0075    1.3793 S.3       12 UNK        -0.2672 
      8 C8         30.0688   24.3162    2.9835 C.3       12 UNK         0.0333 
      9 C9         29.6200   25.3990    3.9555 C.ar      12 UNK        -0.0807 
     10 C10        30.5049   26.4205    4.3097 C.ar      12 UNK        -0.0894 
     11 C11        30.1264   27.4147    5.2145 C.ar      12 UNK        -0.0804 
     12 C12        28.8468   27.3810    5.7722 C.ar      12 UNK        -0.0824 
     13 C13        27.9503   26.3625    5.4326 C.ar      12 UNK        -0.0762 
     14 C14        28.3434   25.3690    4.5275 C.ar      12 UNK        -0.0782 
     15 C15        26.5648   26.3424    6.0612 C.3       12 UNK         0.0230 
     16 S16        25.4945   27.6386    5.3597 S.3       12 UNK        -0.2608 
     17 C17        24.7902   26.8038    3.8981 C.3       12 UNK        -0.0989 
     18 CA         25.6690   26.8959    2.6231 C.3       5 UNK         0.0716 
     19 N          25.1167   26.1398    1.5094 N.am      5 UNK        -0.4135 
     20 C          25.0525   24.8095    1.3939 C.2       4 UNK         0.5031 
     21 O          25.3458   24.0173    2.2897 O.2       4 UNK        -0.5229 
     22 CA         24.6448   24.2802    0.0047 C.3       4 UNK         0.0329 
     23 CB         23.1171   24.3025   -0.1644 C.3       4 UNK        -0.2001 
     24 N          25.2791   25.0407   -1.0815 N.am      4 UNK        -0.4303 
     25 C          26.6061   25.1109   -1.2572 C.2       3 UNK         0.5044 
     26 O          27.4113   24.4300   -0.6132 O.2       3 UNK        -0.5152 
     27 CA         27.1251   26.1311   -2.2827 C.3       3 UNK         0.0319 
     28 CB         26.6974   27.5670   -1.9261 C.3       3 UNK        -0.2001 
     29 N          28.5786   26.0491   -2.2595 N.am      3 UNK        -0.4354 
     30 C          29.4178   26.1424   -3.2937 C.2       2 UNK         0.4964 
     31 O          29.0819   26.4811   -4.4289 O.2       2 UNK        -0.5047 
     32 CA         30.8866   25.7692   -3.0071 C.3       2 UNK         0.0288 
     33 CB         31.7222   27.0348   -2.7522 C.3       2 UNK        -0.2113 
     34 N          31.0356   24.8599   -1.8622 N.am      2 UNK        -0.4145 
     35 C          30.6032   23.5903   -1.8237 C.2       1 UNK         0.5006 
     36 O          30.1202   23.0100   -2.7988 O.2       1 UNK        -0.5103 
     37 C          25.8447   28.3311    2.1048 C.2       5 UNK         0.5055 
     38 O          24.9489   28.8332    1.4196 O.2       5 UNK        -0.5220 
     39 N          26.9832   28.9579    2.4170 N.am      6 UNK        -0.4450 
     40 CA         27.3045   30.3345    2.0563 C.3       6 UNK         0.0367 
     41 CB         27.6933   30.4368    0.5681 C.3       6 UNK        -0.1929 
     42 C          28.4573   30.8050    2.9425 C.2       6 UNK         0.5070 
     43 O          29.4326   30.0715    3.1029 O.2       6 UNK        -0.5237 
     44 N          28.3587   32.0373    3.4558 N.am      7 UNK        -0.4739 
     45 CA         29.3826   32.6749    4.2951 C.3       7 UNK         0.0276 
     46 CB         28.7763   33.9205    4.9628 C.3       7 UNK        -0.1927 
     47 C          30.6754   33.0410    3.5389 C.2       7 UNK         0.5013 
     48 O          31.6867   33.3283    4.1791 O.2       7 UNK        -0.5193 
     49 N          30.6195   33.0328    2.1997 N.am      8 UNK        -0.4253 
     50 CA         31.7551   33.2560    1.3046 C.3       8 UNK         0.0242 
     51 CB         31.2242   33.5741   -0.1034 C.3       8 UNK        -0.2000 
     52 C          32.7400   32.0725    1.2515 C.2       8 UNK         0.4948 
     53 O          33.8852   32.2759    0.8444 O.2       8 UNK        -0.5275 
     54 N          32.2948   30.8664    1.6356 N.am      9 UNK        -0.4246 
     55 CA         33.1360   29.6713    1.7126 C.3       9 UNK         0.0261 
     56 CB         32.2417   28.4214    1.7002 C.3       9 UNK        -0.1959 
     57 C          34.0377   29.7101    2.9589 C.2       9 UNK         0.5033 
     58 O          33.6485   30.2616    3.9909 O.2       9 UNK        -0.5390 
     59 N          35.2271   29.1076    2.8547 N.am      10 UNK        -0.4215 
     60 CA         36.2621   29.1146    3.8923 C.3       10 UNK         0.0240 
     61 CB         37.6406   28.9887    3.2143 C.3       10 UNK        -0.1982 
     62 C          36.0307   28.0388    4.9731 C.2       10 UNK         0.4970 
     63 O          36.9132   27.2099    5.2051 O.2       10 UNK        -0.4916 
     64 N          34.8567   28.0637    5.6179 N.am      11 UNK        -0.4279 
     65 CA         34.5200   27.1801    6.7494 C.3       11 UNK         0.1003 
     66 C          35.1082   27.6221    8.1226 C.2       11 UNK         0.5709 
     67 N          35.7069   28.8017    8.2436 N.am      11 UNK        -0.7358 
     68 O          35.0382   26.8702    9.0922 O.2       11 UNK        -0.4999 
     69 C69        33.0043   26.8575    6.8198 C.3       12 UNK        -0.0954 
     70 S70        31.9230   28.2915    7.1591 S.3       12 UNK        -0.2268 
     71 C71        31.0890   28.5412    5.5615 C.3       12 UNK         0.0203 
     72 H72        26.9772   22.0254    0.7238 H         1 UNK         0.0888 
     73 H73        27.1497   20.2973    0.4002 H         1 UNK         0.0888 
     74 H74        27.4749   20.9364    2.0155 H         1 UNK         0.0888 
     75 H75        28.6221   23.1202   -0.3175 H         1 UNK         0.3017 
     76 H76        31.2643   21.9346   -0.7186 H         1 UNK         0.0873 
     77 H77        31.6915   22.8558    1.4443 H         1 UNK         0.0745 
     78 H78        32.4525   23.9031    0.3025 H         1 UNK         0.0745 
     79 H79        29.2726   23.5906    2.8106 H         1 UNK         0.0705 
     80 H80        30.8971   23.7718    3.4389 H         1 UNK         0.0705 
     81 H81        31.4924   26.4408    3.8704 H         1 UNK         0.1334 
     82 H82        28.5464   28.1521    6.4687 H         1 UNK         0.1417 
     83 H83        27.6531   24.5784    4.2636 H         1 UNK         0.1562 
     84 H84        26.6603   26.5136    7.1345 H         1 UNK         0.0748 
     85 H85        26.0959   25.3632    5.9533 H         1 UNK         0.0748 
     86 H86        23.8054   27.2335    3.7050 H         1 UNK         0.0940 
     87 H87        24.6047   25.7611    4.1577 H         1 UNK         0.0940 
     88 H88        26.6572   26.4859    2.8253 H         1 UNK         0.0703 
     89 H89        24.8368   26.7200    0.7291 H         1 UNK         0.3081 
     90 H90        24.9800   23.2437   -0.0694 H         1 UNK         0.0719 
     91 H91        22.7170   25.3165   -0.1268 H         1 UNK         0.0809 
     92 H92        22.8169   23.8579   -1.1135 H         1 UNK         0.0809 
     93 H93        22.6303   23.7308    0.6271 H         1 UNK         0.0809 
     94 H94        24.6750   25.6039   -1.6630 H         1 UNK         0.2990 
     95 H95        26.7473   25.8556   -3.2694 H         1 UNK         0.0690 
     96 H96        25.6160   27.6914   -1.9889 H         1 UNK         0.0788 
     97 H97        27.1424   28.2922   -2.6077 H         1 UNK         0.0788 
     98 H98        27.0014   27.8338   -0.9132 H         1 UNK         0.0788 
     99 H99        28.9411   25.6923   -1.3841 H         1 UNK         0.2993 
    100 H100       31.2765   25.2661   -3.8946 H         1 UNK         0.0949 
    101 H101       32.7766   26.7938   -2.6150 H         1 UNK         0.0767 
    102 H102       31.6556   27.7226   -3.5964 H         1 UNK         0.0767 
    103 H103       31.3816   27.5724   -1.8660 H         1 UNK         0.0767 
    104 H104       31.3931   25.2601   -1.0048 H         1 UNK         0.3013 
    105 H105       27.6808   28.5001    2.9927 H         1 UNK         0.3121 
    106 H106       26.4306   30.9615    2.2466 H         1 UNK         0.0774 
    107 H107       27.9940   31.4526    0.3092 H         1 UNK         0.0815 
    108 H108       28.5265   29.7761    0.3241 H         1 UNK         0.0815 
    109 H109       26.8578   30.1778   -0.0819 H         1 UNK         0.0815 
    110 H110       27.5283   32.5816    3.2668 H         1 UNK         0.2987 
    111 H111       29.6641   31.9681    5.0792 H         1 UNK         0.0949 
    112 H112       28.4657   34.6630    4.2266 H         1 UNK         0.0806 
    113 H113       27.9082   33.6634    5.5700 H         1 UNK         0.0806 
    114 H114       29.4992   34.4007    5.6240 H         1 UNK         0.0806 
    115 H115       29.7359   32.8053    1.7692 H         1 UNK         0.3010 
    116 H116       32.3095   34.1248    1.6667 H         1 UNK         0.0829 
    117 H117       30.5822   34.4553   -0.0969 H         1 UNK         0.0813 
    118 H118       32.0448   33.7794   -0.7924 H         1 UNK         0.0813 
    119 H119       30.6522   32.7426   -0.5176 H         1 UNK         0.0813 
    120 H120       31.3635   30.7864    2.0243 H         1 UNK         0.3038 
    121 H121       33.7749   29.6390    0.8271 H         1 UNK         0.0769 
    122 H122       31.4917   28.4542    2.4890 H         1 UNK         0.0811 
    123 H123       32.8254   27.5101    1.8367 H         1 UNK         0.0811 
    124 H124       31.7117   28.3257    0.7525 H         1 UNK         0.0811 
    125 H125       35.4590   28.6325    1.9938 H         1 UNK         0.3204 
    126 H126       36.2411   30.0804    4.4023 H         1 UNK         0.0748 
    127 H127       38.4456   29.0429    3.9488 H         1 UNK         0.0771 
    128 H128       37.7462   28.0419    2.6830 H         1 UNK         0.0771 
    129 H129       37.8061   29.7951    2.4993 H         1 UNK         0.0771 
    130 H130       34.1852   28.7852    5.3788 H         1 UNK         0.2980 
    131 H131       35.0025   26.2208    6.5523 H         1 UNK         0.0545 
    132 H132       35.7646   29.4298    7.4591 H         1 UNK         0.3459 
    133 H133       36.0894   29.0708    9.1363 H         1 UNK         0.3459 
    134 H134       32.7040   26.3784    5.8900 H         1 UNK         0.0616 
    135 H135       32.8153   26.1122    7.5944 H         1 UNK         0.0616 
    136 H136       31.8412   28.6447    4.7832 H         1 UNK         0.0634 
    137 H137       30.5482   29.4880    5.5896 H         1 UNK         0.0634 
@<TRIPOS>BOND
     1    1    2 1    
     2    1   72 1    
     3    1   73 1    
     4    1   74 1    
     5    2    3 2    
     6    2    4 am   BACKBONE|DICT|INTERRES
     7    4    5 1    
     8    4   75 1    
     9    5    6 1    
    10    5   35 1    
    11    5   76 1    
    12    6    7 1    
    13    6   77 1    
    14    6   78 1    
    15    7    8 1    
    16    8    9 1    
    17    8   79 1    
    18    8   80 1    
    19    9   10 ar   
    20    9   14 ar   
    21   10   11 ar   
    22   10   81 1    
    23   11   12 ar   
    24   11   71 1    
    25   12   13 ar   
    26   12   82 1    
    27   13   14 ar   
    28   13   15 1    
    29   14   83 1    
    30   15   16 1    
    31   15   84 1    
    32   15   85 1    
    33   16   17 1    
    34   17   18 1    
    35   17   86 1    
    36   17   87 1    
    37   18   19 1    
    38   18   37 1    
    39   18   88 1    
    40   19   20 am   BACKBONE|DICT|INTERRES
    41   19   89 1    
    42   20   21 2    
    43   20   22 1    
    44   22   23 1    
    45   22   24 1    
    46   22   90 1    
    47   23   91 1    
    48   23   92 1    
    49   23   93 1    
    50   24   25 am   BACKBONE|DICT|INTERRES
    51   24   94 1    
    52   25   26 2    
    53   25   27 1    
    54   27   28 1    
    55   27   29 1    
    56   27   95 1    
    57   28   96 1    
    58   28   97 1    
    59   28   98 1    
    60   29   30 am   BACKBONE|DICT|INTERRES
    61   29   99 1    
    62   30   31 2    
    63   30   32 1    
    64   32   33 1    
    65   32   34 1    
    66   32  100 1    
    67   33  101 1    
    68   33  102 1    
    69   33  103 1    
    70   34   35 am   BACKBONE|DICT|INTERRES
    71   34  104 1    
    72   35   36 2    
    73   37   38 2    
    74   37   39 am   BACKBONE|DICT|INTERRES
    75   39   40 1    
    76   39  105 1    
    77   40   41 1    
    78   40   42 1    
    79   40  106 1    
    80   41  107 1    
    81   41  108 1    
    82   41  109 1    
    83   42   43 2    
    84   42   44 am   BACKBONE|DICT|INTERRES
    85   44   45 1    
    86   44  110 1    
    87   45   46 1    
    88   45   47 1    
    89   45  111 1    
    90   46  112 1    
    91   46  113 1    
    92   46  114 1    
    93   47   48 2    
    94   47   49 am   BACKBONE|DICT|INTERRES
    95   49   50 1    
    96   49  115 1    
    97   50   51 1    
    98   50   52 1    
    99   50  116 1    
   100   51  117 1    
   101   51  118 1    
   102   51  119 1    
   103   52   53 2    
   104   52   54 am   BACKBONE|DICT|INTERRES
   105   54   55 1    
   106   54  120 1    
   107   55   56 1    
   108   55   57 1    
   109   55  121 1    
   110   56  122 1    
   111   56  123 1    
   112   56  124 1    
   113   57   58 2    
   114   57   59 am   BACKBONE|DICT|INTERRES
   115   59   60 1    
   116   59  125 1    
   117   60   61 1    
   118   60   62 1    
   119   60  126 1    
   120   61  127 1    
   121   61  128 1    
   122   61  129 1    
   123   62   63 2    
   124   62   64 am   BACKBONE|DICT|INTERRES
   125   64   65 1    
   126   64  130 1    
   127   65   66 1    
   128   65   69 1    
   129   65  131 1    
   130   66   67 am   BACKBONE|DICT|INTERRES
   131   66   68 2    
   132   67  132 1    
   133   67  133 1    
   134   69   70 1    
   135   69  134 1    
   136   69  135 1    
   137   70   71 1    
   138   71  136 1    
   139   71  137 1    
@<TRIPOS>SUBSTRUCTURE
     1 UNK         1 GROUP             0       ****    0 ROOT    
