@<TRIPOS>MOLECULE
3R136
137   139    1
SMALL
USER_CHARGES


@<TRIPOS>ATOM
      1 CA         32.6137   22.9089    5.2061 C.3       0 UNK        -0.1979 
      2 C          31.3043   22.2293    4.8374 C.2       0 UNK         0.4864 
      3 O          30.8542   21.3394    5.5608 O.2       0 UNK        -0.5359 
      4 N          30.6943   22.6351    3.7196 N.am      1 UNK        -0.4318 
      5 CA         29.4210   22.1324    3.2144 C.3       1 UNK         0.0824 
      6 C6         29.5520   20.7130    2.5762 C.3       12 UNK        -0.0944 
      7 S7         29.9273   20.6064    0.7857 S.3       12 UNK        -0.2672 
      8 C8         31.7422   20.7591    0.7368 C.3       12 UNK         0.0333 
      9 C9         32.2094   22.1861    0.4669 C.ar      12 UNK        -0.0807 
     10 C10        33.0756   22.8266    1.3602 C.ar      12 UNK        -0.0894 
     11 C11        33.5621   24.1099    1.0884 C.ar      12 UNK        -0.0804 
     12 C12        33.1840   24.7436   -0.0995 C.ar      12 UNK        -0.0824 
     13 C13        32.3024   24.1285   -0.9925 C.ar      12 UNK        -0.0762 
     14 C14        31.8230   22.8466   -0.7064 C.ar      12 UNK        -0.0782 
     15 C15        31.8912   24.8495   -2.2725 C.3       12 UNK         0.0230 
     16 S16        30.2205   25.5770   -2.1715 S.3       12 UNK        -0.2608 
     17 C17        30.3317   26.5776   -0.6501 C.3       12 UNK        -0.0989 
     18 CA         29.5668   27.9202   -0.7182 C.3       5 UNK         0.0716 
     19 N          28.1395   27.7558   -1.0018 N.am      5 UNK        -0.4135 
     20 C          27.3704   28.6947   -1.5703 C.2       4 UNK         0.5031 
     21 O          27.7959   29.7775   -1.9737 O.2       4 UNK        -0.5229 
     22 CA         25.8689   28.3846   -1.7163 C.3       4 UNK         0.0329 
     23 CB         25.5938   27.6885   -3.0591 C.3       4 UNK        -0.2001 
     24 N          25.3337   27.5645   -0.6275 N.am      4 UNK        -0.4303 
     25 C          25.2124   27.9685    0.6454 C.2       3 UNK         0.5044 
     26 O          25.4909   29.1014    1.0356 O.2       3 UNK        -0.5152 
     27 CA         24.7412   26.9134    1.6653 C.3       3 UNK         0.0319 
     28 CB         23.2081   26.9198    1.7735 C.3       3 UNK        -0.2001 
     29 N          25.2063   25.5476    1.3826 N.am      3 UNK        -0.4354 
     30 C          26.4897   25.1865    1.2377 C.2       2 UNK         0.4964 
     31 O          27.4210   25.9894    1.2845 O.2       2 UNK        -0.5047 
     32 CA         26.7544   23.7103    0.8957 C.3       2 UNK         0.0288 
     33 CB         27.3843   23.5767   -0.5043 C.3       2 UNK        -0.2113 
     34 N          27.5525   22.9874    1.8953 N.am      2 UNK        -0.4145 
     35 C          28.8197   23.2040    2.2856 C.2       1 UNK         0.5006 
     36 O          29.5261   24.1505    1.9305 O.2       1 UNK        -0.5103 
     37 C          29.7613   28.6851    0.6023 C.2       5 UNK         0.5055 
     38 O          30.6024   29.5796    0.6635 O.2       5 UNK        -0.5220 
     39 N          28.9924   28.3011    1.6314 N.am      6 UNK        -0.4450 
     40 CA         29.0714   28.8059    3.0031 C.3       6 UNK         0.0367 
     41 CB         28.2098   27.9059    3.9026 C.3       6 UNK        -0.1929 
     42 C          28.6644   30.2775    3.1847 C.2       6 UNK         0.5070 
     43 O          29.0207   30.8613    4.2085 O.2       6 UNK        -0.5237 
     44 N          27.9167   30.8397    2.2235 N.am      7 UNK        -0.4739 
     45 CA         27.4158   32.2179    2.1910 C.3       7 UNK         0.0276 
     46 CB         26.6619   32.4395    0.8673 C.3       7 UNK        -0.1927 
     47 C          28.5259   33.2697    2.3874 C.2       7 UNK         0.5013 
     48 O          29.2121   33.6218    1.4258 O.2       7 UNK        -0.5193 
     49 N          28.6811   33.7230    3.6410 N.am      8 UNK        -0.4253 
     50 CA         29.7052   34.6483    4.1406 C.3       8 UNK         0.0242 
     51 CB         29.4881   36.0646    3.5642 C.3       8 UNK        -0.2000 
     52 C          31.1469   34.1310    3.9448 C.2       8 UNK         0.4948 
     53 O          32.0431   34.9268    3.6539 O.2       8 UNK        -0.5275 
     54 N          31.3508   32.8165    4.1074 N.am      9 UNK        -0.4246 
     55 CA         32.6399   32.1452    3.9426 C.3       9 UNK         0.0261 
     56 CB         32.6219   31.3602    2.6216 C.3       9 UNK        -0.1959 
     57 C          32.9067   31.1946    5.1147 C.2       9 UNK         0.5033 
     58 O          31.9774   30.7989    5.8231 O.2       9 UNK        -0.5390 
     59 N          34.1784   30.7955    5.2579 N.am      10 UNK        -0.4215 
     60 CA         34.6679   29.8498    6.2697 C.3       10 UNK         0.0240 
     61 CB         36.2033   29.7944    6.2049 C.3       10 UNK        -0.1982 
     62 C          34.0745   28.4313    6.1601 C.2       10 UNK         0.4970 
     63 O          34.1035   27.6949    7.1468 O.2       10 UNK        -0.4916 
     64 N          33.5397   28.0797    4.9831 N.am      11 UNK        -0.4279 
     65 CA         32.7884   26.8402    4.7330 C.3       11 UNK         0.1003 
     66 C          31.4130   26.7688    5.4616 C.2       11 UNK         0.5709 
     67 N          30.8927   27.8555    6.0233 N.am      11 UNK        -0.7358 
     68 O          30.8135   25.6998    5.5283 O.2       11 UNK        -0.4999 
     69 C69        32.6272   26.5557    3.2145 C.3       12 UNK        -0.0954 
     70 S70        34.2174   26.5590    2.3185 S.3       12 UNK        -0.2268 
     71 C71        34.5352   24.7798    2.0563 C.3       12 UNK         0.0203 
     72 H72        32.5501   23.3247    6.2114 H         1 UNK         0.0888 
     73 H73        33.4333   22.1915    5.1809 H         1 UNK         0.0888 
     74 H74        32.8473   23.7213    4.5218 H         1 UNK         0.0888 
     75 H75        31.0518   23.4070    3.1680 H         1 UNK         0.3017 
     76 H76        28.7487   22.0609    4.0726 H         1 UNK         0.0873 
     77 H77        30.2693   20.1018    3.1257 H         1 UNK         0.0745 
     78 H78        28.6005   20.1957    2.7075 H         1 UNK         0.0745 
     79 H79        32.1700   20.3713    1.6626 H         1 UNK         0.0705 
     80 H80        32.1192   20.1189   -0.0619 H         1 UNK         0.0705 
     81 H81        33.3892   22.3148    2.2594 H         1 UNK         0.1334 
     82 H82        33.5742   25.7257   -0.3278 H         1 UNK         0.1417 
     83 H83        31.1507   22.3599   -1.3998 H         1 UNK         0.1562 
     84 H84        31.9203   24.1500   -3.1091 H         1 UNK         0.0748 
     85 H85        32.6057   25.6381   -2.5137 H         1 UNK         0.0748 
     86 H86        29.9735   25.9640    0.1776 H         1 UNK         0.0940 
     87 H87        31.3824   26.7813   -0.4405 H         1 UNK         0.0940 
     88 H88        30.0153   28.5163   -1.5163 H         1 UNK         0.0703 
     89 H89        27.7111   26.9130   -0.6425 H         1 UNK         0.3081 
     90 H90        25.3351   29.3375   -1.7100 H         1 UNK         0.0719 
     91 H91        26.0866   26.7172   -3.1204 H         1 UNK         0.0809 
     92 H92        24.5259   27.5355   -3.2163 H         1 UNK         0.0809 
     93 H93        25.9587   28.2914   -3.8920 H         1 UNK         0.0809 
     94 H94        25.0715   26.6164   -0.8535 H         1 UNK         0.2990 
     95 H95        25.1473   27.1984    2.6370 H         1 UNK         0.0690 
     96 H96        22.8627   26.2583    2.5682 H         1 UNK         0.0788 
     97 H97        22.7350   26.6043    0.8427 H         1 UNK         0.0788 
     98 H98        22.8377   27.9198    2.0046 H         1 UNK         0.0788 
     99 H99        24.4902   24.8389    1.3087 H         1 UNK         0.2993 
    100 H100       25.7913   23.1986    0.8629 H         1 UNK         0.0949 
    101 H101       27.4676   22.5314   -0.8021 H         1 UNK         0.0767 
    102 H102       26.7851   24.0854   -1.2604 H         1 UNK         0.0767 
    103 H103       28.3845   24.0077   -0.5361 H         1 UNK         0.0767 
    104 H104       27.0879   22.1818    2.2900 H         1 UNK         0.3013 
    105 H105       28.3635   27.5110    1.4876 H         1 UNK         0.3121 
    106 H106       30.1100   28.7239    3.3266 H         1 UNK         0.0774 
    107 H107       27.1629   27.9273    3.6018 H         1 UNK         0.0815 
    108 H108       28.2547   28.2297    4.9428 H         1 UNK         0.0815 
    109 H109       28.5488   26.8698    3.8689 H         1 UNK         0.0815 
    110 H110       27.6442   30.2511    1.4481 H         1 UNK         0.2987 
    111 H111       26.6950   32.3239    3.0042 H         1 UNK         0.0949 
    112 H112       27.2987   32.2462    0.0026 H         1 UNK         0.0806 
    113 H113       25.7910   31.7885    0.7919 H         1 UNK         0.0806 
    114 H114       26.3041   33.4668    0.7872 H         1 UNK         0.0806 
    115 H115       28.0998   33.3050    4.3552 H         1 UNK         0.3010 
    116 H116       29.5574   34.7090    5.2199 H         1 UNK         0.0829 
    117 H117       28.4697   36.4122    3.7372 H         1 UNK         0.0813 
    118 H118       30.1585   36.7858    4.0334 H         1 UNK         0.0813 
    119 H119       29.6764   36.0975    2.4906 H         1 UNK         0.0813 
    120 H120       30.5767   32.2141    4.3772 H         1 UNK         0.3038 
    121 H121       33.4498   32.8772    3.9138 H         1 UNK         0.0769 
    122 H122       31.8995   30.5451    2.6603 H         1 UNK         0.0811 
    123 H123       33.5964   30.9234    2.4010 H         1 UNK         0.0811 
    124 H124       32.3554   31.9998    1.7797 H         1 UNK         0.0811 
    125 H125       34.8723   31.1663    4.6237 H         1 UNK         0.3204 
    126 H126       34.3804   30.2403    7.2482 H         1 UNK         0.0748 
    127 H127       36.6031   29.1251    6.9683 H         1 UNK         0.0771 
    128 H128       36.5539   29.4309    5.2379 H         1 UNK         0.0771 
    129 H129       36.6450   30.7763    6.3768 H         1 UNK         0.0771 
    130 H130       33.5799   28.7345    4.2182 H         1 UNK         0.2980 
    131 H131       33.3843   26.0273    5.1514 H         1 UNK         0.0545 
    132 H132       30.0125   27.7794    6.5052 H         1 UNK         0.3459 
    133 H133       31.3599   28.7527    5.9704 H         1 UNK         0.3459 
    134 H134       32.1229   25.6022    3.0481 H         1 UNK         0.0616 
    135 H135       31.9904   27.3120    2.7531 H         1 UNK         0.0616 
    136 H136       35.5434   24.6688    1.6556 H         1 UNK         0.0634 
    137 H137       34.5356   24.2774    3.0236 H         1 UNK         0.0634 
@<TRIPOS>BOND
     1    1    2 1    
     2    1   72 1    
     3    1   73 1    
     4    1   74 1    
     5    2    3 2    
     6    2    4 am   BACKBONE|DICT|INTERRES
     7    4    5 1    
     8    4   75 1    
     9    5    6 1    
    10    5   35 1    
    11    5   76 1    
    12    6    7 1    
    13    6   77 1    
    14    6   78 1    
    15    7    8 1    
    16    8    9 1    
    17    8   79 1    
    18    8   80 1    
    19    9   10 ar   
    20    9   14 ar   
    21   10   11 ar   
    22   10   81 1    
    23   11   12 ar   
    24   11   71 1    
    25   12   13 ar   
    26   12   82 1    
    27   13   14 ar   
    28   13   15 1    
    29   14   83 1    
    30   15   16 1    
    31   15   84 1    
    32   15   85 1    
    33   16   17 1    
    34   17   18 1    
    35   17   86 1    
    36   17   87 1    
    37   18   19 1    
    38   18   37 1    
    39   18   88 1    
    40   19   20 am   BACKBONE|DICT|INTERRES
    41   19   89 1    
    42   20   21 2    
    43   20   22 1    
    44   22   23 1    
    45   22   24 1    
    46   22   90 1    
    47   23   91 1    
    48   23   92 1    
    49   23   93 1    
    50   24   25 am   BACKBONE|DICT|INTERRES
    51   24   94 1    
    52   25   26 2    
    53   25   27 1    
    54   27   28 1    
    55   27   29 1    
    56   27   95 1    
    57   28   96 1    
    58   28   97 1    
    59   28   98 1    
    60   29   30 am   BACKBONE|DICT|INTERRES
    61   29   99 1    
    62   30   31 2    
    63   30   32 1    
    64   32   33 1    
    65   32   34 1    
    66   32  100 1    
    67   33  101 1    
    68   33  102 1    
    69   33  103 1    
    70   34   35 am   BACKBONE|DICT|INTERRES
    71   34  104 1    
    72   35   36 2    
    73   37   38 2    
    74   37   39 am   BACKBONE|DICT|INTERRES
    75   39   40 1    
    76   39  105 1    
    77   40   41 1    
    78   40   42 1    
    79   40  106 1    
    80   41  107 1    
    81   41  108 1    
    82   41  109 1    
    83   42   43 2    
    84   42   44 am   BACKBONE|DICT|INTERRES
    85   44   45 1    
    86   44  110 1    
    87   45   46 1    
    88   45   47 1    
    89   45  111 1    
    90   46  112 1    
    91   46  113 1    
    92   46  114 1    
    93   47   48 2    
    94   47   49 am   BACKBONE|DICT|INTERRES
    95   49   50 1    
    96   49  115 1    
    97   50   51 1    
    98   50   52 1    
    99   50  116 1    
   100   51  117 1    
   101   51  118 1    
   102   51  119 1    
   103   52   53 2    
   104   52   54 am   BACKBONE|DICT|INTERRES
   105   54   55 1    
   106   54  120 1    
   107   55   56 1    
   108   55   57 1    
   109   55  121 1    
   110   56  122 1    
   111   56  123 1    
   112   56  124 1    
   113   57   58 2    
   114   57   59 am   BACKBONE|DICT|INTERRES
   115   59   60 1    
   116   59  125 1    
   117   60   61 1    
   118   60   62 1    
   119   60  126 1    
   120   61  127 1    
   121   61  128 1    
   122   61  129 1    
   123   62   63 2    
   124   62   64 am   BACKBONE|DICT|INTERRES
   125   64   65 1    
   126   64  130 1    
   127   65   66 1    
   128   65   69 1    
   129   65  131 1    
   130   66   67 am   BACKBONE|DICT|INTERRES
   131   66   68 2    
   132   67  132 1    
   133   67  133 1    
   134   69   70 1    
   135   69  134 1    
   136   69  135 1    
   137   70   71 1    
   138   71  136 1    
   139   71  137 1    
@<TRIPOS>SUBSTRUCTURE
     1 UNK         1 GROUP             0       ****    0 ROOT    
