@<TRIPOS>MOLECULE
3R136
137   139    1
SMALL
USER_CHARGES


@<TRIPOS>ATOM
      1 CA         27.2666   22.3552   -2.1970 C.3       0 UNK        -0.1979 
      2 C          28.5362   23.1238   -2.5296 C.2       0 UNK         0.4864 
      3 O          28.9514   23.1458   -3.6892 O.2       0 UNK        -0.5359 
      4 N          29.1544   23.7459   -1.5195 N.am      1 UNK        -0.4318 
      5 CA         30.3670   24.5567   -1.6509 C.3       1 UNK         0.0824 
      6 C6         31.2057   24.5710   -0.3493 C.3       12 UNK        -0.0944 
      7 S7         31.8128   22.8988    0.0531 S.3       12 UNK        -0.2672 
      8 C8         33.0021   23.2427    1.3905 C.3       12 UNK         0.0333 
      9 C9         32.3404   23.7545    2.6651 C.ar      12 UNK        -0.0807 
     10 C10        32.8379   24.8971    3.2994 C.ar      12 UNK        -0.0894 
     11 C11        32.2499   25.3673    4.4773 C.ar      12 UNK        -0.0804 
     12 C12        31.1579   24.6883    5.0232 C.ar      12 UNK        -0.0824 
     13 C13        30.6548   23.5417    4.4033 C.ar      12 UNK        -0.0762 
     14 C14        31.2544   23.0756    3.2299 C.ar      12 UNK        -0.0782 
     15 C15        29.4779   22.7928    5.0101 C.3       12 UNK         0.0230 
     16 S16        27.9279   23.1012    4.1062 S.3       12 UNK        -0.2608 
     17 C17        27.5612   24.8403    4.5336 C.3       12 UNK        -0.0989 
     18 CA         27.4131   25.7507    3.2848 C.3       5 UNK         0.0716 
     19 N          26.3417   25.2686    2.4109 N.am      5 UNK        -0.4135 
     20 C          26.4920   24.9044    1.1352 C.2       4 UNK         0.5031 
     21 O          27.5678   24.8987    0.5328 O.2       4 UNK        -0.5229 
     22 CA         25.2115   24.5393    0.3621 C.3       4 UNK         0.0329 
     23 CB         24.0472   24.0285    1.2426 C.3       4 UNK        -0.2001 
     24 N          24.8199   25.6788   -0.4718 N.am      4 UNK        -0.4303 
     25 C          24.4918   26.9036   -0.0324 C.2       3 UNK         0.5044 
     26 O          24.2121   27.1660    1.1390 O.2       3 UNK        -0.5152 
     27 CA         24.6408   28.0327   -1.0699 C.3       3 UNK         0.0319 
     28 CB         24.2969   29.4243   -0.4996 C.3       3 UNK        -0.2001 
     29 N          25.9909   28.0307   -1.6592 N.am      3 UNK        -0.4354 
     30 C          27.1579   28.0747   -0.9941 C.2       2 UNK         0.4964 
     31 O          27.2619   28.2154    0.2270 O.2       2 UNK        -0.5047 
     32 CA         28.4268   27.8883   -1.8283 C.3       2 UNK         0.0288 
     33 CB         29.4318   29.0294   -1.5783 C.3       2 UNK        -0.2113 
     34 N          28.9936   26.5862   -1.4797 N.am      2 UNK        -0.4145 
     35 C          30.0073   25.9800   -2.1137 C.2       1 UNK         0.5006 
     36 O          30.6269   26.4796   -3.0546 O.2       1 UNK        -0.5103 
     37 C          27.1674   27.2155    3.7180 C.2       5 UNK         0.5055 
     38 O          27.9999   27.7598    4.4443 O.2       5 UNK        -0.5220 
     39 N          26.0346   27.8290    3.3333 N.am      6 UNK        -0.4450 
     40 CA         25.5608   29.0959    3.9034 C.3       6 UNK         0.0367 
     41 CB         24.0639   29.2741    3.6029 C.3       6 UNK        -0.1929 
     42 C          26.3468   30.3372    3.4531 C.2       6 UNK         0.5070 
     43 O          26.4071   31.3053    4.2120 O.2       6 UNK        -0.5237 
     44 N          26.9260   30.3026    2.2471 N.am      7 UNK        -0.4739 
     45 CA         27.7176   31.3968    1.6744 C.3       7 UNK         0.0276 
     46 CB         27.1117   31.7970    0.3173 C.3       7 UNK        -0.1927 
     47 C          29.2025   31.0187    1.5435 C.2       7 UNK         0.5013 
     48 O          29.9629   31.7607    0.9187 O.2       7 UNK        -0.5193 
     49 N          29.6008   29.8755    2.1181 N.am      8 UNK        -0.4253 
     50 CA         30.9607   29.3458    2.0816 C.3       8 UNK         0.0242 
     51 CB         30.9104   27.8296    2.3306 C.3       8 UNK        -0.2000 
     52 C          31.8669   30.0931    3.0740 C.2       8 UNK         0.4948 
     53 O          32.1122   29.6152    4.1820 O.2       8 UNK        -0.5275 
     54 N          32.3558   31.2650    2.6479 N.am      9 UNK        -0.4246 
     55 CA         33.2429   32.1524    3.4101 C.3       9 UNK         0.0261 
     56 CB         33.4046   33.4746    2.6425 C.3       9 UNK        -0.1959 
     57 C          34.6234   31.5540    3.7474 C.2       9 UNK         0.5033 
     58 O          35.3001   32.0776    4.6335 O.2       9 UNK        -0.5390 
     59 N          35.0118   30.4667    3.0638 N.am      10 UNK        -0.4215 
     60 CA         36.2581   29.7157    3.2550 C.3       10 UNK         0.0240 
     61 CB         36.3002   28.5557    2.2462 C.3       10 UNK        -0.1982 
     62 C          36.4810   29.1838    4.6845 C.2       10 UNK         0.4970 
     63 O          37.6340   29.0088    5.0808 O.2       10 UNK        -0.4916 
     64 N          35.3928   28.9530    5.4305 N.am      11 UNK        -0.4279 
     65 CA         35.4236   28.5940    6.8566 C.3       11 UNK         0.1003 
     66 C          35.7197   29.7920    7.8087 C.2       11 UNK         0.5709 
     67 N          35.7693   31.0355    7.3433 N.am      11 UNK        -0.7358 
     68 O          35.9239   29.5854    9.0028 O.2       11 UNK        -0.4999 
     69 C69        34.1350   27.8436    7.2824 C.3       12 UNK        -0.0954 
     70 S70        33.9605   26.2198    6.4698 S.3       12 UNK        -0.2268 
     71 C71        32.7761   26.6209    5.1539 C.3       12 UNK         0.0203 
     72 H72        27.2847   21.3753   -2.6732 H         1 UNK         0.0888 
     73 H73        27.1595   22.2017   -1.1234 H         1 UNK         0.0888 
     74 H74        26.3930   22.8952   -2.5607 H         1 UNK         0.0888 
     75 H75        28.7166   23.7696   -0.6036 H         1 UNK         0.3017 
     76 H76        30.9904   24.1198   -2.4348 H         1 UNK         0.0873 
     77 H77        32.0668   25.2342   -0.4530 H         1 UNK         0.0745 
     78 H78        30.6193   24.9468    0.4920 H         1 UNK         0.0745 
     79 H79        33.5395   22.3228    1.6242 H         1 UNK         0.0705 
     80 H80        33.7477   23.9503    1.0245 H         1 UNK         0.0705 
     81 H81        33.6836   25.4233    2.8783 H         1 UNK         0.1334 
     82 H82        30.7049   25.0533    5.9349 H         1 UNK         0.1417 
     83 H83        30.8684   22.1861    2.7505 H         1 UNK         0.1562 
     84 H84        29.3455   23.0572    6.0605 H         1 UNK         0.0748 
     85 H85        29.6861   21.7220    4.9923 H         1 UNK         0.0748 
     86 H86        28.3441   25.2205    5.1913 H         1 UNK         0.0940 
     87 H87        26.6451   24.8528    5.1272 H         1 UNK         0.0940 
     88 H88        28.3657   25.7488    2.7501 H         1 UNK         0.0703 
     89 H89        25.4129   25.2521    2.8059 H         1 UNK         0.3081 
     90 H90        25.4786   23.7312   -0.3181 H         1 UNK         0.0719 
     91 H91        23.6622   24.7822    1.9290 H         1 UNK         0.0809 
     92 H92        23.2125   23.6982    0.6243 H         1 UNK         0.0809 
     93 H93        24.3601   23.1708    1.8399 H         1 UNK         0.0809 
     94 H94        25.0505   25.5899   -1.4512 H         1 UNK         0.2990 
     95 H95        23.9363   27.8178   -1.8748 H         1 UNK         0.0690 
     96 H96        24.3878   30.1989   -1.2607 H         1 UNK         0.0788 
     97 H97        24.9484   29.6943    0.3303 H         1 UNK         0.0788 
     98 H98        23.2718   29.4506   -0.1284 H         1 UNK         0.0788 
     99 H99        26.0212   27.9119   -2.6627 H         1 UNK         0.2993 
    100 H100       28.1632   27.8812   -2.8879 H         1 UNK         0.0949 
    101 H101       29.8290   28.9855   -0.5670 H         1 UNK         0.0767 
    102 H102       30.2743   28.9864   -2.2678 H         1 UNK         0.0767 
    103 H103       28.9638   30.0056   -1.7079 H         1 UNK         0.0767 
    104 H104       28.5241   26.0967   -0.7202 H         1 UNK         0.3013 
    105 H105       25.4347   27.4018    2.6320 H         1 UNK         0.3121 
    106 H106       25.6702   29.0270    4.9882 H         1 UNK         0.0774 
    107 H107       23.8771   29.3987    2.5365 H         1 UNK         0.0815 
    108 H108       23.6693   30.1584    4.1049 H         1 UNK         0.0815 
    109 H109       23.4825   28.4190    3.9478 H         1 UNK         0.0815 
    110 H110       26.8601   29.4580    1.6819 H         1 UNK         0.2987 
    111 H111       27.6864   32.2754    2.3219 H         1 UNK         0.0949 
    112 H112       26.0734   32.1102    0.4266 H         1 UNK         0.0806 
    113 H113       27.1382   30.9753   -0.3969 H         1 UNK         0.0806 
    114 H114       27.6544   32.6326   -0.1264 H         1 UNK         0.0806 
    115 H115       28.9217   29.3489    2.6505 H         1 UNK         0.3010 
    116 H116       31.3731   29.4964    1.0820 H         1 UNK         0.0829 
    117 H117       31.9052   27.3935    2.2441 H         1 UNK         0.0813 
    118 H118       30.2736   27.3281    1.6012 H         1 UNK         0.0813 
    119 H119       30.5296   27.5922    3.3246 H         1 UNK         0.0813 
    120 H120       32.0248   31.6104    1.7543 H         1 UNK         0.3038 
    121 H121       32.7507   32.3673    4.3609 H         1 UNK         0.0769 
    122 H122       33.8742   33.3217    1.6700 H         1 UNK         0.0811 
    123 H123       34.0276   34.1768    3.1986 H         1 UNK         0.0811 
    124 H124       32.4418   33.9593    2.4788 H         1 UNK         0.0811 
    125 H125       34.3855   30.1225    2.3516 H         1 UNK         0.3204 
    126 H126       37.0826   30.3964    3.0331 H         1 UNK         0.0748 
    127 H127       37.2282   27.9895    2.3400 H         1 UNK         0.0771 
    128 H128       35.4762   27.8572    2.3997 H         1 UNK         0.0771 
    129 H129       36.2486   28.9182    1.2193 H         1 UNK         0.0771 
    130 H130       34.4811   29.1402    5.0372 H         1 UNK         0.2980 
    131 H131       36.2571   27.9042    7.0031 H         1 UNK         0.0545 
    132 H132       35.6154   31.2448    6.3618 H         1 UNK         0.3459 
    133 H133       35.9694   31.7866    7.9840 H         1 UNK         0.3459 
    134 H134       33.2522   28.4569    7.0932 H         1 UNK         0.0616 
    135 H135       34.1410   27.6508    8.3568 H         1 UNK         0.0616 
    136 H136       33.2658   27.2637    4.4223 H         1 UNK         0.0634 
    137 H137       31.9420   27.1913    5.5656 H         1 UNK         0.0634 
@<TRIPOS>BOND
     1    1    2 1    
     2    1   72 1    
     3    1   73 1    
     4    1   74 1    
     5    2    3 2    
     6    2    4 am   BACKBONE|DICT|INTERRES
     7    4    5 1    
     8    4   75 1    
     9    5    6 1    
    10    5   35 1    
    11    5   76 1    
    12    6    7 1    
    13    6   77 1    
    14    6   78 1    
    15    7    8 1    
    16    8    9 1    
    17    8   79 1    
    18    8   80 1    
    19    9   10 ar   
    20    9   14 ar   
    21   10   11 ar   
    22   10   81 1    
    23   11   12 ar   
    24   11   71 1    
    25   12   13 ar   
    26   12   82 1    
    27   13   14 ar   
    28   13   15 1    
    29   14   83 1    
    30   15   16 1    
    31   15   84 1    
    32   15   85 1    
    33   16   17 1    
    34   17   18 1    
    35   17   86 1    
    36   17   87 1    
    37   18   19 1    
    38   18   37 1    
    39   18   88 1    
    40   19   20 am   BACKBONE|DICT|INTERRES
    41   19   89 1    
    42   20   21 2    
    43   20   22 1    
    44   22   23 1    
    45   22   24 1    
    46   22   90 1    
    47   23   91 1    
    48   23   92 1    
    49   23   93 1    
    50   24   25 am   BACKBONE|DICT|INTERRES
    51   24   94 1    
    52   25   26 2    
    53   25   27 1    
    54   27   28 1    
    55   27   29 1    
    56   27   95 1    
    57   28   96 1    
    58   28   97 1    
    59   28   98 1    
    60   29   30 am   BACKBONE|DICT|INTERRES
    61   29   99 1    
    62   30   31 2    
    63   30   32 1    
    64   32   33 1    
    65   32   34 1    
    66   32  100 1    
    67   33  101 1    
    68   33  102 1    
    69   33  103 1    
    70   34   35 am   BACKBONE|DICT|INTERRES
    71   34  104 1    
    72   35   36 2    
    73   37   38 2    
    74   37   39 am   BACKBONE|DICT|INTERRES
    75   39   40 1    
    76   39  105 1    
    77   40   41 1    
    78   40   42 1    
    79   40  106 1    
    80   41  107 1    
    81   41  108 1    
    82   41  109 1    
    83   42   43 2    
    84   42   44 am   BACKBONE|DICT|INTERRES
    85   44   45 1    
    86   44  110 1    
    87   45   46 1    
    88   45   47 1    
    89   45  111 1    
    90   46  112 1    
    91   46  113 1    
    92   46  114 1    
    93   47   48 2    
    94   47   49 am   BACKBONE|DICT|INTERRES
    95   49   50 1    
    96   49  115 1    
    97   50   51 1    
    98   50   52 1    
    99   50  116 1    
   100   51  117 1    
   101   51  118 1    
   102   51  119 1    
   103   52   53 2    
   104   52   54 am   BACKBONE|DICT|INTERRES
   105   54   55 1    
   106   54  120 1    
   107   55   56 1    
   108   55   57 1    
   109   55  121 1    
   110   56  122 1    
   111   56  123 1    
   112   56  124 1    
   113   57   58 2    
   114   57   59 am   BACKBONE|DICT|INTERRES
   115   59   60 1    
   116   59  125 1    
   117   60   61 1    
   118   60   62 1    
   119   60  126 1    
   120   61  127 1    
   121   61  128 1    
   122   61  129 1    
   123   62   63 2    
   124   62   64 am   BACKBONE|DICT|INTERRES
   125   64   65 1    
   126   64  130 1    
   127   65   66 1    
   128   65   69 1    
   129   65  131 1    
   130   66   67 am   BACKBONE|DICT|INTERRES
   131   66   68 2    
   132   67  132 1    
   133   67  133 1    
   134   69   70 1    
   135   69  134 1    
   136   69  135 1    
   137   70   71 1    
   138   71  136 1    
   139   71  137 1    
@<TRIPOS>SUBSTRUCTURE
     1 UNK         1 GROUP             0       ****    0 ROOT    
