@<TRIPOS>MOLECULE
3R136
137   139    1
SMALL
USER_CHARGES


@<TRIPOS>ATOM
      1 CA         29.5332   20.6424   -0.8929 C.3       0 UNK        -0.1979 
      2 C          30.4655   21.6849   -1.4918 C.2       0 UNK         0.4864 
      3 O          30.7220   21.6579   -2.6962 O.2       0 UNK        -0.5359 
      4 N          30.9734   22.6039   -0.6598 N.am      1 UNK        -0.4318 
      5 CA         31.8535   23.7097   -1.0615 C.3       1 UNK         0.0824 
      6 C6         32.6049   24.3072    0.1561 C.3       12 UNK        -0.0944 
      7 S7         31.5035   25.0285    1.4250 S.3       12 UNK        -0.2672 
      8 C8         31.7898   23.9327    2.8462 C.3       12 UNK         0.0333 
      9 C9         31.0588   24.4629    4.0682 C.ar      12 UNK        -0.0807 
     10 C10        31.6238   25.4958    4.8192 C.ar      12 UNK        -0.0894 
     11 C11        30.9438   26.0348    5.9139 C.ar      12 UNK        -0.0804 
     12 C12        29.6988   25.5138    6.2762 C.ar      12 UNK        -0.0824 
     13 C13        29.1300   24.4669    5.5422 C.ar      12 UNK        -0.0762 
     14 C14        29.8128   23.9471    4.4370 C.ar      12 UNK        -0.0782 
     15 C15        27.7835   23.8858    5.9487 C.3       12 UNK         0.0230 
     16 S16        26.4441   24.3993    4.8273 S.3       12 UNK        -0.2608 
     17 C17        26.2796   26.1790    5.2078 C.3       12 UNK        -0.0989 
     18 CA         26.4303   27.0788    3.9512 C.3       5 UNK         0.0716 
     19 N          25.4601   26.6971    2.9117 N.am      5 UNK        -0.4135 
     20 C          25.5501   26.9610    1.6041 C.2       4 UNK         0.5031 
     21 O          26.4603   27.6235    1.0994 O.2       4 UNK        -0.5229 
     22 CA         24.3957   26.4687    0.7268 C.3       4 UNK         0.0329 
     23 CB         23.1950   27.4300    0.8085 C.3       4 UNK        -0.2001 
     24 N          24.8749   26.3851   -0.6475 N.am      4 UNK        -0.4303 
     25 C          24.3811   25.5947   -1.6064 C.2       3 UNK         0.5044 
     26 O          23.3886   24.8797   -1.4604 O.2       3 UNK        -0.5152 
     27 CA         25.1166   25.5902   -2.9618 C.3       3 UNK         0.0319 
     28 CB         24.3956   26.5060   -3.9645 C.3       3 UNK        -0.2001 
     29 N          26.5303   25.9810   -2.8842 N.am      3 UNK        -0.4354 
     30 C          27.4810   25.2866   -2.2442 C.2       2 UNK         0.4964 
     31 O          27.2715   24.2289   -1.6420 O.2       2 UNK        -0.5047 
     32 CA         28.8952   25.8825   -2.2704 C.3       2 UNK         0.0288 
     33 CB         28.9669   27.2132   -1.4950 C.3       2 UNK        -0.2113 
     34 N          29.8016   24.9175   -1.6628 N.am      2 UNK        -0.4145 
     35 C          31.1185   24.8076   -1.8661 C.2       1 UNK         0.5006 
     36 O          31.7560   25.5283   -2.6367 O.2       1 UNK        -0.5103 
     37 C          26.3557   28.5852    4.3186 C.2       5 UNK         0.5055 
     38 O          26.6053   28.9532    5.4686 O.2       5 UNK        -0.5220 
     39 N          25.9952   29.4420    3.3557 N.am      6 UNK        -0.4450 
     40 CA         25.7370   30.8719    3.5215 C.3       6 UNK         0.0367 
     41 CB         24.7110   31.3092    2.4585 C.3       6 UNK        -0.1929 
     42 C          27.0384   31.6915    3.4672 C.2       6 UNK         0.5070 
     43 O          27.1908   32.5410    2.5881 O.2       6 UNK        -0.5237 
     44 N          27.9514   31.4078    4.4081 N.am      7 UNK        -0.4739 
     45 CA         29.2746   32.0242    4.5811 C.3       7 UNK         0.0276 
     46 CB         29.1354   33.4874    5.0530 C.3       7 UNK        -0.1927 
     47 C          30.1582   31.8767    3.3266 C.2       7 UNK         0.5013 
     48 O          30.6184   32.8728    2.7629 O.2       7 UNK        -0.5193 
     49 N          30.3509   30.6202    2.9045 N.am      8 UNK        -0.4253 
     50 CA         31.2189   30.2221    1.7946 C.3       8 UNK         0.0242 
     51 CB         31.0070   28.7210    1.5284 C.3       8 UNK        -0.2000 
     52 C          32.7026   30.5100    2.0880 C.2       8 UNK         0.4948 
     53 O          33.0881   30.6383    3.2514 O.2       8 UNK        -0.5275 
     54 N          33.5298   30.5464    1.0331 N.am      9 UNK        -0.4246 
     55 CA         34.9801   30.7832    1.1144 C.3       9 UNK         0.0261 
     56 CB         35.5757   30.8017   -0.3025 C.3       9 UNK        -0.1959 
     57 C          35.7370   29.7767    2.0040 C.2       9 UNK         0.5033 
     58 O          36.7393   30.1421    2.6199 O.2       9 UNK        -0.5390 
     59 N          35.2153   28.5457    2.0916 N.am      10 UNK        -0.4215 
     60 CA         35.6882   27.4852    2.9817 C.3       10 UNK         0.0240 
     61 CB         35.0112   26.1652    2.5804 C.3       10 UNK        -0.1982 
     62 C          35.4711   27.7722    4.4816 C.2       10 UNK         0.4970 
     63 O          36.1402   27.1389    5.2991 O.2       10 UNK        -0.4916 
     64 N          34.5650   28.6991    4.8291 N.am      11 UNK        -0.4279 
     65 CA         34.3162   29.1322    6.2145 C.3       11 UNK         0.1003 
     66 C          35.3839   30.1214    6.7677 C.2       11 UNK         0.5709 
     67 N          36.3089   30.6318    5.9613 N.am      11 UNK        -0.7358 
     68 O          35.3801   30.4231    7.9590 O.2       11 UNK        -0.4999 
     69 C69        32.8774   29.6891    6.4295 C.3       12 UNK        -0.0954 
     70 S70        31.5438   28.6992    5.6728 S.3       12 UNK        -0.2268 
     71 C71        31.5633   27.1885    6.6840 C.3       12 UNK         0.0203 
     72 H72        28.5436   20.7242   -1.3419 H         1 UNK         0.0888 
     73 H73        29.9151   19.6405   -1.0875 H         1 UNK         0.0888 
     74 H74        29.4269   20.7608    0.1853 H         1 UNK         0.0888 
     75 H75        30.7265   22.5825    0.3191 H         1 UNK         0.3017 
     76 H76        32.6076   23.2945   -1.7341 H         1 UNK         0.0873 
     77 H77        33.2970   25.0851   -0.1721 H         1 UNK         0.0745 
     78 H78        33.2312   23.5388    0.6119 H         1 UNK         0.0745 
     79 H79        31.4582   22.9217    2.6053 H         1 UNK         0.0705 
     80 H80        32.8592   23.8707    3.0541 H         1 UNK         0.0705 
     81 H81        32.5828   25.9061    4.5357 H         1 UNK         0.1334 
     82 H82        29.1726   25.9253    7.1267 H         1 UNK         0.1417 
     83 H83        29.3664   23.1488    3.8596 H         1 UNK         0.1562 
     84 H84        27.5283   24.1675    6.9716 H         1 UNK         0.0748 
     85 H85        27.8471   22.7966    5.9426 H         1 UNK         0.0748 
     86 H86        27.0183   26.4513    5.9627 H         1 UNK         0.0940 
     87 H87        25.3064   26.3373    5.6764 H         1 UNK         0.0940 
     88 H88        27.4324   26.9160    3.5477 H         1 UNK         0.0703 
     89 H89        24.6645   26.1694    3.2406 H         1 UNK         0.3081 
     90 H90        24.1005   25.4738    1.0676 H         1 UNK         0.0719 
     91 H91        23.4598   28.4335    0.4723 H         1 UNK         0.0809 
     92 H92        22.3644   27.0812    0.1947 H         1 UNK         0.0809 
     93 H93        22.8253   27.5149    1.8311 H         1 UNK         0.0809 
     94 H94        25.7198   26.9148   -0.8231 H         1 UNK         0.2990 
     95 H95        25.0771   24.5684   -3.3453 H         1 UNK         0.0690 
     96 H96        24.8453   26.4433   -4.9556 H         1 UNK         0.0788 
     97 H97        24.4199   27.5497   -3.6480 H         1 UNK         0.0788 
     98 H98        23.3473   26.2220   -4.0687 H         1 UNK         0.0788 
     99 H99        26.7862   26.8395   -3.3511 H         1 UNK         0.2993 
    100 H100       29.1811   26.0403   -3.3126 H         1 UNK         0.0949 
    101 H101       28.6827   27.0816   -0.4500 H         1 UNK         0.0767 
    102 H102       29.9747   27.6286   -1.5129 H         1 UNK         0.0767 
    103 H103       28.3034   27.9649   -1.9234 H         1 UNK         0.0767 
    104 H104       29.3396   24.2432   -1.0656 H         1 UNK         0.3013 
    105 H105       25.9322   29.0733    2.4130 H         1 UNK         0.3121 
    106 H106       25.2885   31.0422    4.5028 H         1 UNK         0.0774 
    107 H107       25.0895   31.1617    1.4462 H         1 UNK         0.0815 
    108 H108       24.4645   32.3665    2.5648 H         1 UNK         0.0815 
    109 H109       23.7797   30.7504    2.5525 H         1 UNK         0.0815 
    110 H110       27.7174   30.6616    5.0561 H         1 UNK         0.2987 
    111 H111       29.7777   31.4708    5.3763 H         1 UNK         0.0949 
    112 H112       28.5480   33.5547    5.9686 H         1 UNK         0.0806 
    113 H113       30.1132   33.9227    5.2629 H         1 UNK         0.0806 
    114 H114       28.6563   34.1142    4.3001 H         1 UNK         0.0806 
    115 H115       29.9596   29.8709    3.4555 H         1 UNK         0.3010 
    116 H116       30.9216   30.7905    0.9109 H         1 UNK         0.0829 
    117 H117       31.5887   28.3807    0.6709 H         1 UNK         0.0813 
    118 H118       31.3049   28.1133    2.3848 H         1 UNK         0.0813 
    119 H119       29.9616   28.4988    1.3121 H         1 UNK         0.0813 
    120 H120       33.1435   30.4253    0.1074 H         1 UNK         0.3038 
    121 H121       35.1218   31.7711    1.5576 H         1 UNK         0.0769 
    122 H122       35.4338   29.8487   -0.8139 H         1 UNK         0.0811 
    123 H123       36.6485   30.9981   -0.2720 H         1 UNK         0.0811 
    124 H124       35.1240   31.5831   -0.9140 H         1 UNK         0.0811 
    125 H125       34.3892   28.3457    1.5479 H         1 UNK         0.3204 
    126 H126       36.7642   27.3769    2.8298 H         1 UNK         0.0748 
    127 H127       35.3205   25.3468    3.2321 H         1 UNK         0.0771 
    128 H128       33.9264   26.2417    2.6417 H         1 UNK         0.0771 
    129 H129       35.2692   25.8799    1.5604 H         1 UNK         0.0771 
    130 H130       34.0596   29.2211    4.1187 H         1 UNK         0.2980 
    131 H131       34.4077   28.2487    6.8472 H         1 UNK         0.0545 
    132 H132       36.3262   30.3938    4.9798 H         1 UNK         0.3459 
    133 H133       36.9949   31.2662    6.3381 H         1 UNK         0.3459 
    134 H134       32.8004   30.6937    6.0094 H         1 UNK         0.0616 
    135 H135       32.6641   29.7906    7.4950 H         1 UNK         0.0616 
    136 H136       32.5847   26.9192    6.9509 H         1 UNK         0.0634 
    137 H137       31.0327   27.3736    7.6191 H         1 UNK         0.0634 
@<TRIPOS>BOND
     1    1    2 1    
     2    1   72 1    
     3    1   73 1    
     4    1   74 1    
     5    2    3 2    
     6    2    4 am   BACKBONE|DICT|INTERRES
     7    4    5 1    
     8    4   75 1    
     9    5    6 1    
    10    5   35 1    
    11    5   76 1    
    12    6    7 1    
    13    6   77 1    
    14    6   78 1    
    15    7    8 1    
    16    8    9 1    
    17    8   79 1    
    18    8   80 1    
    19    9   10 ar   
    20    9   14 ar   
    21   10   11 ar   
    22   10   81 1    
    23   11   12 ar   
    24   11   71 1    
    25   12   13 ar   
    26   12   82 1    
    27   13   14 ar   
    28   13   15 1    
    29   14   83 1    
    30   15   16 1    
    31   15   84 1    
    32   15   85 1    
    33   16   17 1    
    34   17   18 1    
    35   17   86 1    
    36   17   87 1    
    37   18   19 1    
    38   18   37 1    
    39   18   88 1    
    40   19   20 am   BACKBONE|DICT|INTERRES
    41   19   89 1    
    42   20   21 2    
    43   20   22 1    
    44   22   23 1    
    45   22   24 1    
    46   22   90 1    
    47   23   91 1    
    48   23   92 1    
    49   23   93 1    
    50   24   25 am   BACKBONE|DICT|INTERRES
    51   24   94 1    
    52   25   26 2    
    53   25   27 1    
    54   27   28 1    
    55   27   29 1    
    56   27   95 1    
    57   28   96 1    
    58   28   97 1    
    59   28   98 1    
    60   29   30 am   BACKBONE|DICT|INTERRES
    61   29   99 1    
    62   30   31 2    
    63   30   32 1    
    64   32   33 1    
    65   32   34 1    
    66   32  100 1    
    67   33  101 1    
    68   33  102 1    
    69   33  103 1    
    70   34   35 am   BACKBONE|DICT|INTERRES
    71   34  104 1    
    72   35   36 2    
    73   37   38 2    
    74   37   39 am   BACKBONE|DICT|INTERRES
    75   39   40 1    
    76   39  105 1    
    77   40   41 1    
    78   40   42 1    
    79   40  106 1    
    80   41  107 1    
    81   41  108 1    
    82   41  109 1    
    83   42   43 2    
    84   42   44 am   BACKBONE|DICT|INTERRES
    85   44   45 1    
    86   44  110 1    
    87   45   46 1    
    88   45   47 1    
    89   45  111 1    
    90   46  112 1    
    91   46  113 1    
    92   46  114 1    
    93   47   48 2    
    94   47   49 am   BACKBONE|DICT|INTERRES
    95   49   50 1    
    96   49  115 1    
    97   50   51 1    
    98   50   52 1    
    99   50  116 1    
   100   51  117 1    
   101   51  118 1    
   102   51  119 1    
   103   52   53 2    
   104   52   54 am   BACKBONE|DICT|INTERRES
   105   54   55 1    
   106   54  120 1    
   107   55   56 1    
   108   55   57 1    
   109   55  121 1    
   110   56  122 1    
   111   56  123 1    
   112   56  124 1    
   113   57   58 2    
   114   57   59 am   BACKBONE|DICT|INTERRES
   115   59   60 1    
   116   59  125 1    
   117   60   61 1    
   118   60   62 1    
   119   60  126 1    
   120   61  127 1    
   121   61  128 1    
   122   61  129 1    
   123   62   63 2    
   124   62   64 am   BACKBONE|DICT|INTERRES
   125   64   65 1    
   126   64  130 1    
   127   65   66 1    
   128   65   69 1    
   129   65  131 1    
   130   66   67 am   BACKBONE|DICT|INTERRES
   131   66   68 2    
   132   67  132 1    
   133   67  133 1    
   134   69   70 1    
   135   69  134 1    
   136   69  135 1    
   137   70   71 1    
   138   71  136 1    
   139   71  137 1    
@<TRIPOS>SUBSTRUCTURE
     1 UNK         1 GROUP             0       ****    0 ROOT    
