@<TRIPOS>MOLECULE
3R136
137   139    1
SMALL
USER_CHARGES


@<TRIPOS>ATOM
      1 CA         25.7782   27.8467    1.3193 C.3       0 UNK        -0.1979 
      2 C          25.9586   26.6677    2.2615 C.2       0 UNK         0.4864 
      3 O          25.1262   26.4761    3.1478 O.2       0 UNK        -0.5359 
      4 N          27.0263   25.8747    2.0821 N.am      1 UNK        -0.4318 
      5 CA         27.2805   24.6497    2.8584 C.3       1 UNK         0.0824 
      6 C6         28.7468   24.1563    2.7264 C.3       12 UNK        -0.0944 
      7 S7         29.2082   23.5581    1.0611 S.3       12 UNK        -0.2672 
      8 C8         30.8598   22.8635    1.3711 C.3       12 UNK         0.0333 
      9 C9         31.9075   23.9599    1.4687 C.ar      12 UNK        -0.0807 
     10 C10        32.5298   24.2502    2.6858 C.ar      12 UNK        -0.0894 
     11 C11        33.4915   25.2618    2.7617 C.ar      12 UNK        -0.0804 
     12 C12        33.8074   26.0032    1.6174 C.ar      12 UNK        -0.0824 
     13 C13        33.1883   25.7248    0.3939 C.ar      12 UNK        -0.0762 
     14 C14        32.2557   24.6843    0.3262 C.ar      12 UNK        -0.0782 
     15 C15        33.5484   26.5419   -0.8463 C.3       12 UNK         0.0230 
     16 S16        32.1200   26.9343   -1.9181 S.3       12 UNK        -0.2608 
     17 C17        31.0452   27.8196   -0.7426 C.3       12 UNK        -0.0989 
     18 CA         29.8500   28.5389   -1.4303 C.3       5 UNK         0.0716 
     19 N          29.0060   27.6279   -2.2149 N.am      5 UNK        -0.4135 
     20 C          28.2268   26.6462   -1.7406 C.2       4 UNK         0.5031 
     21 O          28.0929   26.3733   -0.5445 O.2       4 UNK        -0.5229 
     22 CA         27.5241   25.7783   -2.7990 C.3       4 UNK         0.0329 
     23 CB         28.3646   24.5234   -3.0860 C.3       4 UNK        -0.2001 
     24 N          26.1852   25.3619   -2.3803 N.am      4 UNK        -0.4303 
     25 C          25.1276   26.1682   -2.2281 C.2       3 UNK         0.5044 
     26 O          25.1451   27.3702   -2.4938 O.2       3 UNK        -0.5152 
     27 CA         23.8281   25.5470   -1.6735 C.3       3 UNK         0.0319 
     28 CB         22.9308   25.0172   -2.8094 C.3       3 UNK        -0.2001 
     29 N          24.0374   24.5403   -0.6192 N.am      3 UNK        -0.4354 
     30 C          24.5732   23.3140   -0.7194 C.2       2 UNK         0.4964 
     31 O          24.9305   22.8007   -1.7803 O.2       2 UNK        -0.5047 
     32 CA         24.8978   22.6297    0.6127 C.3       2 UNK         0.0288 
     33 CB         25.4103   21.1838    0.4546 C.3       2 UNK        -0.2113 
     34 N          25.9163   23.4665    1.2298 N.am      2 UNK        -0.4145 
     35 C          26.2506   23.5472    2.5207 C.2       1 UNK         0.5006 
     36 O          25.7705   22.8438    3.4112 O.2       1 UNK        -0.5103 
     37 C          29.0009   29.4043   -0.4674 C.2       5 UNK         0.5055 
     38 O          27.9559   29.9142   -0.8778 O.2       5 UNK        -0.5220 
     39 N          29.4572   29.5694    0.7793 N.am      6 UNK        -0.4450 
     40 CA         28.7739   30.2594    1.8645 C.3       6 UNK         0.0367 
     41 CB         29.0514   31.7716    1.8015 C.3       6 UNK        -0.1929 
     42 C          29.3042   29.6375    3.1570 C.2       6 UNK         0.5070 
     43 O          30.5176   29.6746    3.3773 O.2       6 UNK        -0.5237 
     44 N          28.4083   29.0474    3.9596 N.am      7 UNK        -0.4739 
     45 CA         28.7361   28.3241    5.1925 C.3       7 UNK         0.0276 
     46 CB         27.4504   27.7579    5.8157 C.3       7 UNK        -0.1927 
     47 C          29.4750   29.2149    6.2021 C.2       7 UNK         0.5013 
     48 O          29.0034   30.3173    6.4921 O.2       7 UNK        -0.5193 
     49 N          30.6335   28.7375    6.6763 N.am      8 UNK        -0.4253 
     50 CA         31.6129   29.4073    7.5442 C.3       8 UNK         0.0242 
     51 CB         31.0047   29.8020    8.9044 C.3       8 UNK        -0.2000 
     52 C          32.3265   30.6022    6.8834 C.2       8 UNK         0.4948 
     53 O          33.5474   30.7023    6.9957 O.2       8 UNK        -0.5275 
     54 N          31.5734   31.4699    6.1959 N.am      9 UNK        -0.4246 
     55 CA         32.0457   32.6824    5.5245 C.3       9 UNK         0.0261 
     56 CB         30.8428   33.4552    4.9623 C.3       9 UNK        -0.1959 
     57 C          33.0904   32.4224    4.4266 C.2       9 UNK         0.5033 
     58 O          34.0809   33.1518    4.3600 O.2       9 UNK        -0.5390 
     59 N          32.8781   31.3821    3.6078 N.am      10 UNK        -0.4215 
     60 CA         33.8342   30.9506    2.5816 C.3       10 UNK         0.0240 
     61 CB         33.0750   30.2185    1.4646 C.3       10 UNK        -0.1982 
     62 C          34.9466   30.0437    3.1389 C.2       10 UNK         0.4970 
     63 O          35.9035   29.7624    2.4163 O.2       10 UNK        -0.4916 
     64 N          34.7905   29.5731    4.3814 N.am      11 UNK        -0.4279 
     65 CA         35.6577   28.5762    5.0238 C.3       11 UNK         0.1003 
     66 C          36.8421   29.1887    5.8233 C.2       11 UNK         0.5709 
     67 N          36.9439   30.5054    5.9620 N.am      11 UNK        -0.7358 
     68 O          37.6977   28.4542    6.3117 O.2       11 UNK        -0.4999 
     69 C69        34.8367   27.5781    5.8874 C.3       12 UNK        -0.0954 
     70 S70        33.4012   26.8780    4.9989 S.3       12 UNK        -0.2268 
     71 C71        34.2100   25.5411    4.0718 C.3       12 UNK         0.0203 
     72 H72        25.4971   28.7392    1.8772 H         1 UNK         0.0888 
     73 H73        26.6889   28.0680    0.7684 H         1 UNK         0.0888 
     74 H74        24.9893   27.6354    0.5987 H         1 UNK         0.0888 
     75 H75        27.6439   26.0431    1.2889 H         1 UNK         0.3017 
     76 H76        27.1267   24.9013    3.9099 H         1 UNK         0.0873 
     77 H77        29.4309   24.9605    3.0027 H         1 UNK         0.0745 
     78 H78        28.9282   23.3532    3.4430 H         1 UNK         0.0745 
     79 H79        30.8408   22.2499    2.2731 H         1 UNK         0.0705 
     80 H80        31.1192   22.1940    0.5499 H         1 UNK         0.0705 
     81 H81        32.2729   23.6854    3.5717 H         1 UNK         0.1334 
     82 H82        34.5424   26.7946    1.6824 H         1 UNK         0.1417 
     83 H83        31.7733   24.4511   -0.6134 H         1 UNK         0.1562 
     84 H84        34.2811   25.9839   -1.4305 H         1 UNK         0.0748 
     85 H85        34.0303   27.4779   -0.5589 H         1 UNK         0.0748 
     86 H86        31.6796   28.5403   -0.2291 H         1 UNK         0.0940 
     87 H87        30.6904   27.1118    0.0097 H         1 UNK         0.0940 
     88 H88        30.2689   29.2448   -2.1491 H         1 UNK         0.0703 
     89 H89        29.0344   27.7745   -3.2131 H         1 UNK         0.3081 
     90 H90        27.4235   26.3530   -3.7221 H         1 UNK         0.0719 
     91 H91        28.4799   23.9053   -2.1940 H         1 UNK         0.0809 
     92 H92        27.9115   23.9093   -3.8644 H         1 UNK         0.0809 
     93 H93        29.3661   24.7917   -3.4257 H         1 UNK         0.0809 
     94 H94        26.0510   24.3776   -2.1757 H         1 UNK         0.2990 
     95 H95        23.2847   26.3600   -1.1888 H         1 UNK         0.0690 
     96 H96        21.9915   24.6227   -2.4221 H         1 UNK         0.0788 
     97 H97        23.4161   24.2274   -3.3833 H         1 UNK         0.0788 
     98 H98        22.6827   25.8158   -3.5098 H         1 UNK         0.0788 
     99 H99        23.8167   24.8636    0.3132 H         1 UNK         0.2993 
    100 H100       23.9969   22.6281    1.2299 H         1 UNK         0.0949 
    101 H101       24.6742   20.5633   -0.0578 H         1 UNK         0.0767 
    102 H102       26.3345   21.1446   -0.1236 H         1 UNK         0.0767 
    103 H103       25.6046   20.7239    1.4236 H         1 UNK         0.0767 
    104 H104       26.4022   24.0883    0.5967 H         1 UNK         0.3013 
    105 H105       30.3106   29.1080    1.0644 H         1 UNK         0.3121 
    106 H106       27.6983   30.0907    1.7897 H         1 UNK         0.0774 
    107 H107       28.5448   32.2924    2.6145 H         1 UNK         0.0815 
    108 H108       28.6896   32.2020    0.8678 H         1 UNK         0.0815 
    109 H109       30.1167   31.9924    1.8791 H         1 UNK         0.0815 
    110 H110       27.4291   29.1020    3.7232 H         1 UNK         0.2987 
    111 H111       29.3824   27.4877    4.9164 H         1 UNK         0.0949 
    112 H112       26.7429   28.5485    6.0693 H         1 UNK         0.0806 
    113 H113       26.9506   27.0642    5.1414 H         1 UNK         0.0806 
    114 H114       27.6695   27.2108    6.7338 H         1 UNK         0.0806 
    115 H115       30.9379   27.8380    6.3285 H         1 UNK         0.3010 
    116 H116       32.3802   28.6584    7.7441 H         1 UNK         0.0829 
    117 H117       30.2433   30.5763    8.8070 H         1 UNK         0.0813 
    118 H118       30.5492   28.9441    9.3988 H         1 UNK         0.0813 
    119 H119       31.7739   30.1906    9.5731 H         1 UNK         0.0813 
    120 H120       30.5735   31.2828    6.1687 H         1 UNK         0.3038 
    121 H121       32.5228   33.3053    6.2840 H         1 UNK         0.0769 
    122 H122       31.1637   34.3590    4.4424 H         1 UNK         0.0811 
    123 H123       30.2755   32.8522    4.2542 H         1 UNK         0.0811 
    124 H124       30.1635   33.7630    5.7574 H         1 UNK         0.0811 
    125 H125       32.0330   30.8218    3.7076 H         1 UNK         0.3204 
    126 H126       34.3126   31.8297    2.1444 H         1 UNK         0.0748 
    127 H127       32.6481   29.2822    1.8262 H         1 UNK         0.0771 
    128 H128       32.2680   30.8310    1.0628 H         1 UNK         0.0771 
    129 H129       33.7405   29.9734    0.6357 H         1 UNK         0.0771 
    130 H130       34.0144   29.8993    4.9398 H         1 UNK         0.2980 
    131 H131       36.1296   27.9890    4.2345 H         1 UNK         0.0545 
    132 H132       37.7189   30.8913    6.4774 H         1 UNK         0.3459 
    133 H133       36.2323   31.1116    5.5849 H         1 UNK         0.3459 
    134 H134       35.4680   26.7583    6.2351 H         1 UNK         0.0616 
    135 H135       34.4670   28.0733    6.7856 H         1 UNK         0.0616 
    136 H136       35.2474   25.8032    3.8610 H         1 UNK         0.0634 
    137 H137       34.2427   24.6447    4.6930 H         1 UNK         0.0634 
@<TRIPOS>BOND
     1    1    2 1    
     2    1   72 1    
     3    1   73 1    
     4    1   74 1    
     5    2    3 2    
     6    2    4 am   BACKBONE|DICT|INTERRES
     7    4    5 1    
     8    4   75 1    
     9    5    6 1    
    10    5   35 1    
    11    5   76 1    
    12    6    7 1    
    13    6   77 1    
    14    6   78 1    
    15    7    8 1    
    16    8    9 1    
    17    8   79 1    
    18    8   80 1    
    19    9   10 ar   
    20    9   14 ar   
    21   10   11 ar   
    22   10   81 1    
    23   11   12 ar   
    24   11   71 1    
    25   12   13 ar   
    26   12   82 1    
    27   13   14 ar   
    28   13   15 1    
    29   14   83 1    
    30   15   16 1    
    31   15   84 1    
    32   15   85 1    
    33   16   17 1    
    34   17   18 1    
    35   17   86 1    
    36   17   87 1    
    37   18   19 1    
    38   18   37 1    
    39   18   88 1    
    40   19   20 am   BACKBONE|DICT|INTERRES
    41   19   89 1    
    42   20   21 2    
    43   20   22 1    
    44   22   23 1    
    45   22   24 1    
    46   22   90 1    
    47   23   91 1    
    48   23   92 1    
    49   23   93 1    
    50   24   25 am   BACKBONE|DICT|INTERRES
    51   24   94 1    
    52   25   26 2    
    53   25   27 1    
    54   27   28 1    
    55   27   29 1    
    56   27   95 1    
    57   28   96 1    
    58   28   97 1    
    59   28   98 1    
    60   29   30 am   BACKBONE|DICT|INTERRES
    61   29   99 1    
    62   30   31 2    
    63   30   32 1    
    64   32   33 1    
    65   32   34 1    
    66   32  100 1    
    67   33  101 1    
    68   33  102 1    
    69   33  103 1    
    70   34   35 am   BACKBONE|DICT|INTERRES
    71   34  104 1    
    72   35   36 2    
    73   37   38 2    
    74   37   39 am   BACKBONE|DICT|INTERRES
    75   39   40 1    
    76   39  105 1    
    77   40   41 1    
    78   40   42 1    
    79   40  106 1    
    80   41  107 1    
    81   41  108 1    
    82   41  109 1    
    83   42   43 2    
    84   42   44 am   BACKBONE|DICT|INTERRES
    85   44   45 1    
    86   44  110 1    
    87   45   46 1    
    88   45   47 1    
    89   45  111 1    
    90   46  112 1    
    91   46  113 1    
    92   46  114 1    
    93   47   48 2    
    94   47   49 am   BACKBONE|DICT|INTERRES
    95   49   50 1    
    96   49  115 1    
    97   50   51 1    
    98   50   52 1    
    99   50  116 1    
   100   51  117 1    
   101   51  118 1    
   102   51  119 1    
   103   52   53 2    
   104   52   54 am   BACKBONE|DICT|INTERRES
   105   54   55 1    
   106   54  120 1    
   107   55   56 1    
   108   55   57 1    
   109   55  121 1    
   110   56  122 1    
   111   56  123 1    
   112   56  124 1    
   113   57   58 2    
   114   57   59 am   BACKBONE|DICT|INTERRES
   115   59   60 1    
   116   59  125 1    
   117   60   61 1    
   118   60   62 1    
   119   60  126 1    
   120   61  127 1    
   121   61  128 1    
   122   61  129 1    
   123   62   63 2    
   124   62   64 am   BACKBONE|DICT|INTERRES
   125   64   65 1    
   126   64  130 1    
   127   65   66 1    
   128   65   69 1    
   129   65  131 1    
   130   66   67 am   BACKBONE|DICT|INTERRES
   131   66   68 2    
   132   67  132 1    
   133   67  133 1    
   134   69   70 1    
   135   69  134 1    
   136   69  135 1    
   137   70   71 1    
   138   71  136 1    
   139   71  137 1    
@<TRIPOS>SUBSTRUCTURE
     1 UNK         1 GROUP             0       ****    0 ROOT    
