@<TRIPOS>MOLECULE
3R136
137   139    1
SMALL
USER_CHARGES


@<TRIPOS>ATOM
      1 CA         31.2251   20.0441   -1.3485 C.3       0 UNK        -0.1979 
      2 C          31.3526   21.3479   -2.1223 C.2       0 UNK         0.4864 
      3 O          31.6017   21.3226   -3.3283 O.2       0 UNK        -0.5359 
      4 N          31.1816   22.4872   -1.4383 N.am      1 UNK        -0.4318 
      5 CA         31.2571   23.8352   -2.0169 C.3       1 UNK         0.0824 
      6 C6         31.5257   24.9101   -0.9331 C.3       12 UNK        -0.0944 
      7 S7         30.2849   24.9603    0.4116 S.3       12 UNK        -0.2672 
      8 C8         31.2922   24.4547    1.8406 C.3       12 UNK         0.0333 
      9 C9         30.5697   24.7237    3.1517 C.ar      12 UNK        -0.0807 
     10 C10        30.8727   25.8691    3.8943 C.ar      12 UNK        -0.0894 
     11 C11        30.2197   26.1241    5.1033 C.ar      12 UNK        -0.0804 
     12 C12        29.2710   25.2158    5.5790 C.ar      12 UNK        -0.0824 
     13 C13        28.9360   24.0821    4.8303 C.ar      12 UNK        -0.0762 
     14 C14        29.5975   23.8346    3.6224 C.ar      12 UNK        -0.0782 
     15 C15        27.8238   23.1547    5.3029 C.3       12 UNK         0.0230 
     16 S16        26.2285   23.5475    4.5029 S.3       12 UNK        -0.2608 
     17 C17        25.9169   25.2425    5.1076 C.3       12 UNK        -0.0989 
     18 CA         26.4197   26.3049    4.0912 C.3       5 UNK         0.0716 
     19 N          25.6048   26.3667    2.8748 N.am      5 UNK        -0.4135 
     20 C          24.4040   26.9346    2.7043 C.2       4 UNK         0.5031 
     21 O          23.7750   27.4911    3.6060 O.2       4 UNK        -0.5229 
     22 CA         23.8147   26.8805    1.2745 C.3       4 UNK         0.0329 
     23 CB         22.6133   27.8285    1.0969 C.3       4 UNK        -0.2001 
     24 N          24.8010   27.1666    0.2215 N.am      4 UNK        -0.4303 
     25 C          25.7552   26.3256   -0.1967 C.2       3 UNK         0.5044 
     26 O          25.9282   25.2052    0.2908 O.2       3 UNK        -0.5152 
     27 CA         26.7133   26.8459   -1.2790 C.3       3 UNK         0.0319 
     28 CB         27.7759   27.7671   -0.6562 C.3       3 UNK        -0.2001 
     29 N          27.3855   25.7212   -1.9283 N.am      3 UNK        -0.4354 
     30 C          26.8680   24.9969   -2.9297 C.2       2 UNK         0.4964 
     31 O          25.8278   25.3020   -3.5160 O.2       2 UNK        -0.5047 
     32 CA         27.5948   23.6921   -3.3221 C.3       2 UNK         0.0288 
     33 CB         27.6817   23.5052   -4.8525 C.3       2 UNK        -0.2113 
     34 N          28.9060   23.5042   -2.6826 N.am      2 UNK        -0.4145 
     35 C          30.0337   24.2056   -2.8854 C.2       1 UNK         0.5006 
     36 O          30.1341   25.1293   -3.6945 O.2       1 UNK        -0.5103 
     37 C          26.6796   27.6935    4.7155 C.2       5 UNK         0.5055 
     38 O          26.5172   27.8799    5.9234 O.2       5 UNK        -0.5220 
     39 N          27.0947   28.6431    3.8713 N.am      6 UNK        -0.4450 
     40 CA         27.4516   30.0103    4.2273 C.3       6 UNK         0.0367 
     41 CB         26.1774   30.8551    4.4184 C.3       6 UNK        -0.1929 
     42 C          28.3235   30.5817    3.1049 C.2       6 UNK         0.5070 
     43 O          28.3233   30.0367    1.9976 O.2       6 UNK        -0.5237 
     44 N          29.0351   31.6748    3.4101 N.am      7 UNK        -0.4739 
     45 CA         29.8675   32.5158    2.5325 C.3       7 UNK         0.0276 
     46 CB         29.0223   33.1554    1.4138 C.3       7 UNK        -0.1927 
     47 C          31.1260   31.8492    1.9448 C.2       7 UNK         0.5013 
     48 O          32.1691   32.5037    1.8960 O.2       7 UNK        -0.5193 
     49 N          31.0158   30.5865    1.5112 N.am      8 UNK        -0.4253 
     50 CA         32.0571   29.7668    0.8835 C.3       8 UNK         0.0242 
     51 CB         31.5049   28.3526    0.6461 C.3       8 UNK        -0.2000 
     52 C          33.3519   29.7217    1.7107 C.2       8 UNK         0.4948 
     53 O          33.3739   29.0933    2.7713 O.2       8 UNK        -0.5275 
     54 N          34.3745   30.4537    1.2399 N.am      9 UNK        -0.4246 
     55 CA         35.6790   30.6838    1.8800 C.3       9 UNK         0.0261 
     56 CB         36.5232   29.3918    1.8447 C.3       9 UNK        -0.1959 
     57 C          35.5786   31.2762    3.3033 C.2       9 UNK         0.5033 
     58 O          36.4539   31.0164    4.1320 O.2       9 UNK        -0.5390 
     59 N          34.4821   32.0012    3.5872 N.am      10 UNK        -0.4215 
     60 CA         34.0497   32.4767    4.9103 C.3       10 UNK         0.0240 
     61 CB         34.9744   33.6076    5.4081 C.3       10 UNK        -0.1982 
     62 C          33.8848   31.3448    5.9518 C.2       10 UNK         0.4970 
     63 O          33.9731   31.6053    7.1527 O.2       10 UNK        -0.4916 
     64 N          33.6691   30.1102    5.4747 N.am      11 UNK        -0.4279 
     65 CA         33.6955   28.8603    6.2430 C.3       11 UNK         0.1003 
     66 C          35.0902   28.4856    6.8360 C.2       11 UNK         0.5709 
     67 N          36.1908   29.0563    6.3568 N.am      11 UNK        -0.7358 
     68 O          35.1880   27.6438    7.7257 O.2       11 UNK        -0.4999 
     69 C69        32.5170   28.7545    7.2574 C.3       12 UNK        -0.0954 
     70 S70        31.7330   27.1113    7.1912 S.3       12 UNK        -0.2268 
     71 C71        30.5142   27.3998    5.8739 C.3       12 UNK         0.0203 
     72 H72        30.4258   19.4346   -1.7692 H         1 UNK         0.0888 
     73 H73        32.1544   19.4785   -1.4118 H         1 UNK         0.0888 
     74 H74        31.0034   20.2143   -0.2951 H         1 UNK         0.0888 
     75 H75        30.9787   22.4519   -0.4494 H         1 UNK         0.3017 
     76 H76        32.1136   23.8475   -2.6950 H         1 UNK         0.0873 
     77 H77        31.5756   25.9021   -1.3862 H         1 UNK         0.0745 
     78 H78        32.5161   24.7444   -0.5066 H         1 UNK         0.0745 
     79 H79        32.2408   24.9941    1.8256 H         1 UNK         0.0705 
     80 H80        31.5375   23.3949    1.7592 H         1 UNK         0.0705 
     81 H81        31.6139   26.5677    3.5292 H         1 UNK         0.1334 
     82 H82        28.7639   25.4174    6.5127 H         1 UNK         0.1417 
     83 H83        29.3396   22.9622    3.0372 H         1 UNK         0.1562 
     84 H84        27.7114   23.2095    6.3869 H         1 UNK         0.0748 
     85 H85        28.0875   22.1204    5.0770 H         1 UNK         0.0748 
     86 H86        26.3982   25.3478    6.0808 H         1 UNK         0.0940 
     87 H87        24.8490   25.3668    5.2938 H         1 UNK         0.0940 
     88 H88        27.3996   25.9933    3.7327 H         1 UNK         0.0703 
     89 H89        25.9889   25.8851    2.0663 H         1 UNK         0.3081 
     90 H90        23.4507   25.8610    1.1299 H         1 UNK         0.0719 
     91 H91        22.8957   28.8703    1.2539 H         1 UNK         0.0809 
     92 H92        22.1826   27.7427    0.0991 H         1 UNK         0.0809 
     93 H93        21.8195   27.5948    1.8079 H         1 UNK         0.0809 
     94 H94        24.7528   28.0856   -0.1956 H         1 UNK         0.2990 
     95 H95        26.1435   27.4106   -2.0200 H         1 UNK         0.0690 
     96 H96        28.4987   28.0991   -1.4017 H         1 UNK         0.0788 
     97 H97        28.3253   27.2717    0.1454 H         1 UNK         0.0788 
     98 H98        27.3207   28.6619   -0.2300 H         1 UNK         0.0788 
     99 H99        28.2118   25.3710   -1.4654 H         1 UNK         0.2993 
    100 H100       26.9659   22.8884   -2.9359 H         1 UNK         0.0949 
    101 H101       28.1851   22.5733   -5.1105 H         1 UNK         0.0767 
    102 H102       26.6873   23.4685   -5.2992 H         1 UNK         0.0767 
    103 H103       28.2198   24.3227   -5.3330 H         1 UNK         0.0767 
    104 H104       28.9416   22.7803   -1.9785 H         1 UNK         0.3013 
    105 H105       27.2494   28.4266    2.8936 H         1 UNK         0.3121 
    106 H106       28.0349   29.9995    5.1507 H         1 UNK         0.0774 
    107 H107       26.4210   31.8873    4.6723 H         1 UNK         0.0815 
    108 H108       25.5710   30.8751    3.5119 H         1 UNK         0.0815 
    109 H109       25.5567   30.4642    5.2247 H         1 UNK         0.0815 
    110 H110       28.9757   32.0060    4.3637 H         1 UNK         0.2987 
    111 H111       30.2273   33.3279    3.1670 H         1 UNK         0.0949 
    112 H112       28.6231   32.4095    0.7256 H         1 UNK         0.0806 
    113 H113       28.1824   33.7169    1.8230 H         1 UNK         0.0806 
    114 H114       29.6199   33.8518    0.8239 H         1 UNK         0.0806 
    115 H115       30.0927   30.1658    1.5965 H         1 UNK         0.3010 
    116 H116       32.2793   30.2077   -0.0902 H         1 UNK         0.0829 
    117 H117       30.6831   28.3626   -0.0692 H         1 UNK         0.0813 
    118 H118       32.2750   27.6923    0.2458 H         1 UNK         0.0813 
    119 H119       31.1372   27.9024    1.5685 H         1 UNK         0.0813 
    120 H120       34.2231   30.9699    0.3836 H         1 UNK         0.3038 
    121 H121       36.1918   31.4345    1.2769 H         1 UNK         0.0769 
    122 H122       37.5405   29.5764    2.1924 H         1 UNK         0.0811 
    123 H123       36.5969   28.9927    0.8332 H         1 UNK         0.0811 
    124 H124       36.0978   28.6153    2.4818 H         1 UNK         0.0811 
    125 H125       33.8057   32.1506    2.8403 H         1 UNK         0.3204 
    126 H126       33.0544   32.9001    4.7680 H         1 UNK         0.0748 
    127 H127       34.5830   34.0641    6.3181 H         1 UNK         0.0771 
    128 H128       35.9763   33.2407    5.6334 H         1 UNK         0.0771 
    129 H129       35.0666   34.3998    4.6651 H         1 UNK         0.0771 
    130 H130       33.6112   29.9740    4.4690 H         1 UNK         0.2980 
    131 H131       33.5418   28.1071    5.4694 H         1 UNK         0.0545 
    132 H132       36.1494   29.7451    5.6119 H         1 UNK         0.3459 
    133 H133       37.0833   28.7961    6.7443 H         1 UNK         0.3459 
    134 H134       32.8467   28.9559    8.2781 H         1 UNK         0.0616 
    135 H135       31.7492   29.5020    7.0507 H         1 UNK         0.0616 
    136 H136       30.8819   28.1636    5.1861 H         1 UNK         0.0634 
    137 H137       29.5977   27.7985    6.3117 H         1 UNK         0.0634 
@<TRIPOS>BOND
     1    1    2 1    
     2    1   72 1    
     3    1   73 1    
     4    1   74 1    
     5    2    3 2    
     6    2    4 am   BACKBONE|DICT|INTERRES
     7    4    5 1    
     8    4   75 1    
     9    5    6 1    
    10    5   35 1    
    11    5   76 1    
    12    6    7 1    
    13    6   77 1    
    14    6   78 1    
    15    7    8 1    
    16    8    9 1    
    17    8   79 1    
    18    8   80 1    
    19    9   10 ar   
    20    9   14 ar   
    21   10   11 ar   
    22   10   81 1    
    23   11   12 ar   
    24   11   71 1    
    25   12   13 ar   
    26   12   82 1    
    27   13   14 ar   
    28   13   15 1    
    29   14   83 1    
    30   15   16 1    
    31   15   84 1    
    32   15   85 1    
    33   16   17 1    
    34   17   18 1    
    35   17   86 1    
    36   17   87 1    
    37   18   19 1    
    38   18   37 1    
    39   18   88 1    
    40   19   20 am   BACKBONE|DICT|INTERRES
    41   19   89 1    
    42   20   21 2    
    43   20   22 1    
    44   22   23 1    
    45   22   24 1    
    46   22   90 1    
    47   23   91 1    
    48   23   92 1    
    49   23   93 1    
    50   24   25 am   BACKBONE|DICT|INTERRES
    51   24   94 1    
    52   25   26 2    
    53   25   27 1    
    54   27   28 1    
    55   27   29 1    
    56   27   95 1    
    57   28   96 1    
    58   28   97 1    
    59   28   98 1    
    60   29   30 am   BACKBONE|DICT|INTERRES
    61   29   99 1    
    62   30   31 2    
    63   30   32 1    
    64   32   33 1    
    65   32   34 1    
    66   32  100 1    
    67   33  101 1    
    68   33  102 1    
    69   33  103 1    
    70   34   35 am   BACKBONE|DICT|INTERRES
    71   34  104 1    
    72   35   36 2    
    73   37   38 2    
    74   37   39 am   BACKBONE|DICT|INTERRES
    75   39   40 1    
    76   39  105 1    
    77   40   41 1    
    78   40   42 1    
    79   40  106 1    
    80   41  107 1    
    81   41  108 1    
    82   41  109 1    
    83   42   43 2    
    84   42   44 am   BACKBONE|DICT|INTERRES
    85   44   45 1    
    86   44  110 1    
    87   45   46 1    
    88   45   47 1    
    89   45  111 1    
    90   46  112 1    
    91   46  113 1    
    92   46  114 1    
    93   47   48 2    
    94   47   49 am   BACKBONE|DICT|INTERRES
    95   49   50 1    
    96   49  115 1    
    97   50   51 1    
    98   50   52 1    
    99   50  116 1    
   100   51  117 1    
   101   51  118 1    
   102   51  119 1    
   103   52   53 2    
   104   52   54 am   BACKBONE|DICT|INTERRES
   105   54   55 1    
   106   54  120 1    
   107   55   56 1    
   108   55   57 1    
   109   55  121 1    
   110   56  122 1    
   111   56  123 1    
   112   56  124 1    
   113   57   58 2    
   114   57   59 am   BACKBONE|DICT|INTERRES
   115   59   60 1    
   116   59  125 1    
   117   60   61 1    
   118   60   62 1    
   119   60  126 1    
   120   61  127 1    
   121   61  128 1    
   122   61  129 1    
   123   62   63 2    
   124   62   64 am   BACKBONE|DICT|INTERRES
   125   64   65 1    
   126   64  130 1    
   127   65   66 1    
   128   65   69 1    
   129   65  131 1    
   130   66   67 am   BACKBONE|DICT|INTERRES
   131   66   68 2    
   132   67  132 1    
   133   67  133 1    
   134   69   70 1    
   135   69  134 1    
   136   69  135 1    
   137   70   71 1    
   138   71  136 1    
   139   71  137 1    
@<TRIPOS>SUBSTRUCTURE
     1 UNK         1 GROUP             0       ****    0 ROOT    
