@<TRIPOS>MOLECULE
3R136
137   139    1
SMALL
USER_CHARGES


@<TRIPOS>ATOM
      1 CA         26.8128   22.6281    0.3658 C.3       0 UNK        -0.1979 
      2 C          28.2670   23.0363    0.5396 C.2       0 UNK         0.4864 
      3 O          28.5577   24.1926    0.8593 O.2       0 UNK        -0.5359 
      4 N          29.1785   22.0842    0.3039 N.am      1 UNK        -0.4318 
      5 CA         30.6369   22.2406    0.3818 C.3       1 UNK         0.0824 
      6 C6         31.1436   22.5289    1.8269 C.3       12 UNK        -0.0944 
      7 S7         30.5743   21.2503    2.9989 S.3       12 UNK        -0.2672 
      8 C8         30.7913   22.0801    4.6052 C.3       12 UNK         0.0333 
      9 C9         29.8544   23.2650    4.8227 C.ar      12 UNK        -0.0807 
     10 C10        30.3788   24.4859    5.2527 C.ar      12 UNK        -0.0894 
     11 C11        29.5441   25.5743    5.5214 C.ar      12 UNK        -0.0804 
     12 C12        28.1610   25.4271    5.3652 C.ar      12 UNK        -0.0824 
     13 C13        27.6169   24.2080    4.9447 C.ar      12 UNK        -0.0762 
     14 C14        28.4701   23.1336    4.6683 C.ar      12 UNK        -0.0782 
     15 C15        26.1072   24.0211    4.8537 C.3       12 UNK         0.0230 
     16 S16        25.4819   24.2174    3.1548 S.3       12 UNK        -0.2608 
     17 C17        25.0954   25.9981    3.0719 C.3       12 UNK        -0.0989 
     18 CA         26.2708   26.8540    2.5302 C.3       5 UNK         0.0716 
     19 N          26.7400   26.4390    1.2032 N.am      5 UNK        -0.4135 
     20 C          26.1561   26.6359    0.0113 C.2       4 UNK         0.5031 
     21 O          25.0483   27.1535   -0.1391 O.2       4 UNK        -0.5229 
     22 CA         27.0023   26.2231   -1.2181 C.3       4 UNK         0.0329 
     23 CB         26.5048   26.8511   -2.5376 C.3       4 UNK        -0.2001 
     24 N          28.4359   26.4876   -1.0010 N.am      4 UNK        -0.4303 
     25 C          28.9759   27.6862   -0.7311 C.2       3 UNK         0.5044 
     26 O          28.3703   28.7498   -0.8447 O.2       3 UNK        -0.5152 
     27 CA         30.3756   27.7213   -0.1047 C.3       3 UNK         0.0319 
     28 CB         30.2396   27.9811    1.4053 C.3       3 UNK        -0.2001 
     29 N          31.1554   26.4996   -0.2946 N.am      3 UNK        -0.4354 
     30 C          31.9583   26.2663   -1.3420 C.2       2 UNK         0.4964 
     31 O          32.0809   27.0353   -2.2954 O.2       2 UNK        -0.5047 
     32 CA         32.7975   24.9745   -1.3067 C.3       2 UNK         0.0288 
     33 CB         34.2379   25.2937   -0.8742 C.3       2 UNK        -0.2113 
     34 N          32.2478   23.9438   -0.4180 N.am      2 UNK        -0.4145 
     35 C          31.1370   23.2432   -0.6865 C.2       1 UNK         0.5006 
     36 O          30.5122   23.3660   -1.7444 O.2       1 UNK        -0.5103 
     37 C          26.0115   28.3758    2.6691 C.2       5 UNK         0.5055 
     38 O          25.1773   28.7754    3.4836 O.2       5 UNK        -0.5220 
     39 N          26.7417   29.2127    1.9129 N.am      6 UNK        -0.4450 
     40 CA         26.6518   30.6783    1.9800 C.3       6 UNK         0.0367 
     41 CB         27.3542   31.2944    0.7596 C.3       6 UNK        -0.1929 
     42 C          27.2108   31.2954    3.2771 C.2       6 UNK         0.5070 
     43 O          26.9171   32.4588    3.5523 O.2       6 UNK        -0.5237 
     44 N          28.0251   30.5380    4.0297 N.am      7 UNK        -0.4739 
     45 CA         28.6511   30.8527    5.3275 C.3       7 UNK         0.0276 
     46 CB         27.5901   31.1455    6.4060 C.3       7 UNK        -0.1927 
     47 C          29.7270   31.9558    5.2952 C.2       7 UNK         0.5013 
     48 O          30.7286   31.8348    5.9999 O.2       7 UNK        -0.5193 
     49 N          29.5199   32.9960    4.4798 N.am      8 UNK        -0.4253 
     50 CA         30.4741   34.0795    4.2251 C.3       8 UNK         0.0242 
     51 CB         29.7045   35.3021    3.6983 C.3       8 UNK        -0.2000 
     52 C          31.5914   33.6820    3.2406 C.2       8 UNK         0.4948 
     53 O          32.6062   34.3777    3.1713 O.2       8 UNK        -0.5275 
     54 N          31.3778   32.5956    2.4865 N.am      9 UNK        -0.4246 
     55 CA         32.3254   32.0147    1.5346 C.3       9 UNK         0.0261 
     56 CB         31.5236   31.3643    0.3924 C.3       9 UNK        -0.1959 
     57 C          33.3001   31.0350    2.2234 C.2       9 UNK         0.5033 
     58 O          33.3563   30.9790    3.4532 O.2       9 UNK        -0.5390 
     59 N          34.0803   30.3067    1.4106 N.am      10 UNK        -0.4215 
     60 CA         35.1942   29.4443    1.8252 C.3       10 UNK         0.0240 
     61 CB         35.8493   28.8272    0.5774 C.3       10 UNK        -0.1982 
     62 C          34.8432   28.3441    2.8434 C.2       10 UNK         0.4970 
     63 O          35.6135   28.1384    3.7819 O.2       10 UNK        -0.4916 
     64 N          33.7128   27.6538    2.6299 N.am      11 UNK        -0.4279 
     65 CA         33.1858   26.5672    3.4837 C.3       11 UNK         0.1003 
     66 C          34.0838   25.2914    3.5752 C.2       11 UNK         0.5709 
     67 N          35.1057   25.1313    2.7432 N.am      11 UNK        -0.7358 
     68 O          33.8220   24.4003    4.3781 O.2       11 UNK        -0.4999 
     69 C69        32.7123   27.0934    4.8755 C.3       12 UNK        -0.0954 
     70 S70        31.0429   27.8307    4.7971 S.3       12 UNK        -0.2268 
     71 C71        30.1258   26.8800    6.0551 C.3       12 UNK         0.0203 
     72 H72        26.6769   22.0411   -0.5421 H         1 UNK         0.0888 
     73 H73        26.4881   22.0303    1.2169 H         1 UNK         0.0888 
     74 H74        26.1667   23.5020    0.3013 H         1 UNK         0.0888 
     75 H75        28.8635   21.1678    0.0195 H         1 UNK         0.3017 
     76 H76        31.0528   21.2784    0.0790 H         1 UNK         0.0873 
     77 H77        32.2337   22.5414    1.8714 H         1 UNK         0.0745 
     78 H78        30.8029   23.5077    2.1694 H         1 UNK         0.0745 
     79 H79        31.8350   22.3854    4.6971 H         1 UNK         0.0705 
     80 H80        30.6155   21.3519    5.3978 H         1 UNK         0.0705 
     81 H81        31.4425   24.5741    5.4063 H         1 UNK         0.1334 
     82 H82        27.5030   26.2528    5.5994 H         1 UNK         0.1417 
     83 H83        28.0548   22.1858    4.3538 H         1 UNK         0.1562 
     84 H84        25.5910   24.7031    5.5307 H         1 UNK         0.0748 
     85 H85        25.8513   23.0176    5.1970 H         1 UNK         0.0748 
     86 H86        24.7917   26.3277    4.0670 H         1 UNK         0.0940 
     87 H87        24.2177   26.1267    2.4362 H         1 UNK         0.0940 
     88 H88        27.1241   26.6734    3.1817 H         1 UNK         0.0703 
     89 H89        27.5924   25.8847    1.2030 H         1 UNK         0.3081 
     90 H90        26.9011   25.1424   -1.3163 H         1 UNK         0.0719 
     91 H91        27.1312   26.5545   -3.3787 H         1 UNK         0.0809 
     92 H92        26.4945   27.9404   -2.4940 H         1 UNK         0.0809 
     93 H93        25.4873   26.5284   -2.7615 H         1 UNK         0.0809 
     94 H94        29.0010   25.6661   -0.8241 H         1 UNK         0.2990 
     95 H95        30.9060   28.5625   -0.5551 H         1 UNK         0.0690 
     96 H96        31.1999   28.2381    1.8447 H         1 UNK         0.0788 
     97 H97        29.8437   27.1139    1.9363 H         1 UNK         0.0788 
     98 H98        29.5738   28.8181    1.6142 H         1 UNK         0.0788 
     99 H99        31.0846   25.7958    0.4253 H         1 UNK         0.2993 
    100 H100       32.8250   24.5747   -2.3230 H         1 UNK         0.0949 
    101 H101       34.2700   25.7309    0.1231 H         1 UNK         0.0767 
    102 H102       34.8621   24.3997   -0.8724 H         1 UNK         0.0767 
    103 H103       34.7006   26.0079   -1.5570 H         1 UNK         0.0767 
    104 H104       32.7414   23.7743    0.4461 H         1 UNK         0.3013 
    105 H105       27.3515   28.8304    1.2016 H         1 UNK         0.3121 
    106 H106       25.5952   30.9500    1.9303 H         1 UNK         0.0774 
    107 H107       27.2805   32.3829    0.7705 H         1 UNK         0.0815 
    108 H108       28.4136   31.0403    0.7300 H         1 UNK         0.0815 
    109 H109       26.9011   30.9532   -0.1714 H         1 UNK         0.0815 
    110 H110       28.2258   29.6119    3.6812 H         1 UNK         0.2987 
    111 H111       29.1665   29.9412    5.6304 H         1 UNK         0.0949 
    112 H112       26.8714   30.3298    6.4858 H         1 UNK         0.0806 
    113 H113       28.0551   31.2650    7.3855 H         1 UNK         0.0806 
    114 H114       27.0364   32.0614    6.1981 H         1 UNK         0.0806 
    115 H115       28.6269   33.0279    3.9921 H         1 UNK         0.3010 
    116 H116       30.9515   34.3538    5.1684 H         1 UNK         0.0829 
    117 H117       28.9530   35.6362    4.4140 H         1 UNK         0.0813 
    118 H118       30.3778   36.1421    3.5214 H         1 UNK         0.0813 
    119 H119       29.1982   35.0852    2.7567 H         1 UNK         0.0813 
    120 H120       30.5361   32.0694    2.6620 H         1 UNK         0.3038 
    121 H121       32.9317   32.8155    1.1056 H         1 UNK         0.0769 
    122 H122       30.8821   32.0961   -0.0993 H         1 UNK         0.0811 
    123 H123       30.8834   30.5676    0.7615 H         1 UNK         0.0811 
    124 H124       32.1679   30.9454   -0.3807 H         1 UNK         0.0811 
    125 H125       33.9668   30.4303    0.4150 H         1 UNK         0.3204 
    126 H126       35.9311   30.0932    2.3033 H         1 UNK         0.0748 
    127 H127       36.6841   28.1799    0.8511 H         1 UNK         0.0771 
    128 H128       35.1438   28.2259    0.0028 H         1 UNK         0.0771 
    129 H129       36.2474   29.5977   -0.0833 H         1 UNK         0.0771 
    130 H130       33.1563   27.8933    1.8247 H         1 UNK         0.2980 
    131 H131       32.3051   26.1958    2.9587 H         1 UNK         0.0545 
    132 H132       35.6647   24.2960    2.8129 H         1 UNK         0.3459 
    133 H133       35.3634   25.8589    2.0986 H         1 UNK         0.3459 
    134 H134       32.7160   26.3147    5.6362 H         1 UNK         0.0616 
    135 H135       33.3955   27.8503    5.2616 H         1 UNK         0.0616 
    136 H136       29.3246   27.5149    6.4359 H         1 UNK         0.0634 
    137 H137       30.7713   26.6756    6.9104 H         1 UNK         0.0634 
@<TRIPOS>BOND
     1    1    2 1    
     2    1   72 1    
     3    1   73 1    
     4    1   74 1    
     5    2    3 2    
     6    2    4 am   BACKBONE|DICT|INTERRES
     7    4    5 1    
     8    4   75 1    
     9    5    6 1    
    10    5   35 1    
    11    5   76 1    
    12    6    7 1    
    13    6   77 1    
    14    6   78 1    
    15    7    8 1    
    16    8    9 1    
    17    8   79 1    
    18    8   80 1    
    19    9   10 ar   
    20    9   14 ar   
    21   10   11 ar   
    22   10   81 1    
    23   11   12 ar   
    24   11   71 1    
    25   12   13 ar   
    26   12   82 1    
    27   13   14 ar   
    28   13   15 1    
    29   14   83 1    
    30   15   16 1    
    31   15   84 1    
    32   15   85 1    
    33   16   17 1    
    34   17   18 1    
    35   17   86 1    
    36   17   87 1    
    37   18   19 1    
    38   18   37 1    
    39   18   88 1    
    40   19   20 am   BACKBONE|DICT|INTERRES
    41   19   89 1    
    42   20   21 2    
    43   20   22 1    
    44   22   23 1    
    45   22   24 1    
    46   22   90 1    
    47   23   91 1    
    48   23   92 1    
    49   23   93 1    
    50   24   25 am   BACKBONE|DICT|INTERRES
    51   24   94 1    
    52   25   26 2    
    53   25   27 1    
    54   27   28 1    
    55   27   29 1    
    56   27   95 1    
    57   28   96 1    
    58   28   97 1    
    59   28   98 1    
    60   29   30 am   BACKBONE|DICT|INTERRES
    61   29   99 1    
    62   30   31 2    
    63   30   32 1    
    64   32   33 1    
    65   32   34 1    
    66   32  100 1    
    67   33  101 1    
    68   33  102 1    
    69   33  103 1    
    70   34   35 am   BACKBONE|DICT|INTERRES
    71   34  104 1    
    72   35   36 2    
    73   37   38 2    
    74   37   39 am   BACKBONE|DICT|INTERRES
    75   39   40 1    
    76   39  105 1    
    77   40   41 1    
    78   40   42 1    
    79   40  106 1    
    80   41  107 1    
    81   41  108 1    
    82   41  109 1    
    83   42   43 2    
    84   42   44 am   BACKBONE|DICT|INTERRES
    85   44   45 1    
    86   44  110 1    
    87   45   46 1    
    88   45   47 1    
    89   45  111 1    
    90   46  112 1    
    91   46  113 1    
    92   46  114 1    
    93   47   48 2    
    94   47   49 am   BACKBONE|DICT|INTERRES
    95   49   50 1    
    96   49  115 1    
    97   50   51 1    
    98   50   52 1    
    99   50  116 1    
   100   51  117 1    
   101   51  118 1    
   102   51  119 1    
   103   52   53 2    
   104   52   54 am   BACKBONE|DICT|INTERRES
   105   54   55 1    
   106   54  120 1    
   107   55   56 1    
   108   55   57 1    
   109   55  121 1    
   110   56  122 1    
   111   56  123 1    
   112   56  124 1    
   113   57   58 2    
   114   57   59 am   BACKBONE|DICT|INTERRES
   115   59   60 1    
   116   59  125 1    
   117   60   61 1    
   118   60   62 1    
   119   60  126 1    
   120   61  127 1    
   121   61  128 1    
   122   61  129 1    
   123   62   63 2    
   124   62   64 am   BACKBONE|DICT|INTERRES
   125   64   65 1    
   126   64  130 1    
   127   65   66 1    
   128   65   69 1    
   129   65  131 1    
   130   66   67 am   BACKBONE|DICT|INTERRES
   131   66   68 2    
   132   67  132 1    
   133   67  133 1    
   134   69   70 1    
   135   69  134 1    
   136   69  135 1    
   137   70   71 1    
   138   71  136 1    
   139   71  137 1    
@<TRIPOS>SUBSTRUCTURE
     1 UNK         1 GROUP             0       ****    0 ROOT    
