@<TRIPOS>MOLECULE
3R136
137   139    1
SMALL
USER_CHARGES


@<TRIPOS>ATOM
      1 CA         29.9121   27.6369   -0.3479 C.3       0 UNK        -0.1979 
      2 C          29.6804   26.1644   -0.6493 C.2       0 UNK         0.4864 
      3 O          29.4182   25.8140   -1.8007 O.2       0 UNK        -0.5359 
      4 N          29.7650   25.3139    0.3844 N.am      1 UNK        -0.4318 
      5 CA         29.5712   23.8565    0.3774 C.3       1 UNK         0.0824 
      6 C6         30.8052   23.0678   -0.1362 C.3       12 UNK        -0.0944 
      7 S7         32.3127   23.3790    0.8436 S.3       12 UNK        -0.2672 
      8 C8         32.1537   22.1805    2.2098 C.3       12 UNK         0.0333 
      9 C9         31.4756   22.8049    3.4217 C.ar      12 UNK        -0.0807 
     10 C10        32.1926   23.6862    4.2363 C.ar      12 UNK        -0.0894 
     11 C11        31.5849   24.2930    5.3388 C.ar      12 UNK        -0.0804 
     12 C12        30.2475   24.0063    5.6283 C.ar      12 UNK        -0.0824 
     13 C13        29.5259   23.1055    4.8388 C.ar      12 UNK        -0.0762 
     14 C14        30.1479   22.5011    3.7409 C.ar      12 UNK        -0.0782 
     15 C15        28.0883   22.7538    5.1987 C.3       12 UNK         0.0230 
     16 S16        26.8852   23.3513    3.9696 S.3       12 UNK        -0.2608 
     17 C17        26.9145   25.1623    4.2190 C.3       12 UNK        -0.0989 
     18 CA         27.0455   25.9310    2.8748 C.3       5 UNK         0.0716 
     19 N          25.9967   25.5821    1.9063 N.am      5 UNK        -0.4135 
     20 C          24.6895   25.8688    1.9871 C.2       4 UNK         0.5031 
     21 O          24.1741   26.4312    2.9554 O.2       4 UNK        -0.5229 
     22 CA         23.8166   25.4985    0.7666 C.3       4 UNK         0.0329 
     23 CB         22.5446   26.3680    0.6798 C.3       4 UNK        -0.2001 
     24 N          24.5149   25.5215   -0.5292 N.am      4 UNK        -0.4303 
     25 C          25.2454   26.5144   -1.0608 C.2       3 UNK         0.5044 
     26 O          25.5219   27.5548   -0.4623 O.2       3 UNK        -0.5152 
     27 CA         25.7858   26.2780   -2.4864 C.3       3 UNK         0.0319 
     28 CB         26.5832   27.4794   -3.0271 C.3       3 UNK        -0.2001 
     29 N          26.6278   25.0808   -2.5375 N.am      3 UNK        -0.4354 
     30 C          26.1660   23.8232   -2.6101 C.2       2 UNK         0.4964 
     31 O          24.9734   23.5475   -2.7485 O.2       2 UNK        -0.5047 
     32 CA         27.1807   22.6782   -2.4318 C.3       2 UNK         0.0288 
     33 CB         27.6906   22.1927   -3.7980 C.3       2 UNK        -0.2113 
     34 N          28.3251   23.0226   -1.5822 N.am      2 UNK        -0.4145 
     35 C          28.2522   23.4483   -0.3113 C.2       1 UNK         0.5006 
     36 O          27.1945   23.5666    0.3084 O.2       1 UNK        -0.5103 
     37 C          27.2201   27.4601    3.0707 C.2       5 UNK         0.5055 
     38 O          27.8240   27.8768    4.0612 O.2       5 UNK        -0.5220 
     39 N          26.7180   28.2819    2.1347 N.am      6 UNK        -0.4450 
     40 CA         26.7222   29.7439    2.2094 C.3       6 UNK         0.0367 
     41 CB         25.4838   30.2885    1.4731 C.3       6 UNK        -0.1929 
     42 C          28.0377   30.3206    1.6616 C.2       6 UNK         0.5070 
     43 O          28.0433   30.9854    0.6238 O.2       6 UNK        -0.5237 
     44 N          29.1412   30.0326    2.3602 N.am      7 UNK        -0.4739 
     45 CA         30.4706   30.5701    2.0677 C.3       7 UNK         0.0276 
     46 CB         31.5178   29.7588    2.8475 C.3       7 UNK        -0.1927 
     47 C          30.5688   32.0678    2.4154 C.2       7 UNK         0.5013 
     48 O          29.9265   32.5239    3.3645 O.2       7 UNK        -0.5193 
     49 N          31.4001   32.7972    1.6591 N.am      8 UNK        -0.4253 
     50 CA         31.6669   34.2308    1.8454 C.3       8 UNK         0.0242 
     51 CB         32.1208   34.8256    0.5008 C.3       8 UNK        -0.2000 
     52 C          32.7047   34.5312    2.9474 C.2       8 UNK         0.4948 
     53 O          32.9335   35.7007    3.2597 O.2       8 UNK        -0.5275 
     54 N          33.3207   33.4846    3.5024 N.am      9 UNK        -0.4246 
     55 CA         34.3025   33.5020    4.5813 C.3       9 UNK         0.0261 
     56 CB         35.7145   33.6997    3.9934 C.3       9 UNK        -0.1959 
     57 C          34.1556   32.1800    5.3507 C.2       9 UNK         0.5033 
     58 O          33.1810   31.4559    5.1274 O.2       9 UNK        -0.5390 
     59 N          35.1250   31.8492    6.2140 N.am      10 UNK        -0.4215 
     60 CA         35.1763   30.6142    7.0122 C.3       10 UNK         0.0240 
     61 CB         36.1649   30.8176    8.1765 C.3       10 UNK        -0.1982 
     62 C          35.4882   29.3449    6.1822 C.2       10 UNK         0.4970 
     63 O          36.3797   28.5751    6.5443 O.2       10 UNK        -0.4916 
     64 N          34.7481   29.1608    5.0826 N.am      11 UNK        -0.4279 
     65 CA         34.7939   28.0311    4.1382 C.3       11 UNK         0.1003 
     66 C          36.1431   27.8590    3.3741 C.2       11 UNK         0.5709 
     67 N          36.9975   28.8735    3.3081 N.am      11 UNK        -0.7358 
     68 O          36.4094   26.8056    2.7999 O.2       11 UNK        -0.4999 
     69 C69        34.2723   26.7058    4.7612 C.3       12 UNK        -0.0954 
     70 S70        32.5980   26.8726    5.4717 S.3       12 UNK        -0.2268 
     71 C71        32.3757   25.2363    6.2347 C.3       12 UNK         0.0203 
     72 H72        30.2083   27.7965    0.6877 H         1 UNK         0.0888 
     73 H73        30.6977   28.0334   -0.9904 H         1 UNK         0.0888 
     74 H74        29.0010   28.2062   -0.5304 H         1 UNK         0.0888 
     75 H75        30.0208   25.6871    1.2869 H         1 UNK         0.3017 
     76 H76        29.4261   23.5865    1.4213 H         1 UNK         0.0873 
     77 H77        31.0314   23.3423   -1.1680 H         1 UNK         0.0745 
     78 H78        30.6087   21.9939   -0.1411 H         1 UNK         0.0745 
     79 H79        33.1520   21.8449    2.4948 H         1 UNK         0.0705 
     80 H80        31.6210   21.2888    1.8763 H         1 UNK         0.0705 
     81 H81        33.2257   23.9016    4.0044 H         1 UNK         0.1334 
     82 H82        29.7736   24.4707    6.4825 H         1 UNK         0.1417 
     83 H83        29.5911   21.8016    3.1319 H         1 UNK         0.1562 
     84 H84        27.8211   23.1467    6.1811 H         1 UNK         0.0748 
     85 H85        27.9996   21.6691    5.2733 H         1 UNK         0.0748 
     86 H86        27.7424   25.4137    4.8839 H         1 UNK         0.0940 
     87 H87        26.0052   25.4572    4.7454 H         1 UNK         0.0940 
     88 H88        27.9778   25.6032    2.4185 H         1 UNK         0.0703 
     89 H89        26.3130   25.0241    1.1171 H         1 UNK         0.3081 
     90 H90        23.5047   24.4654    0.9256 H         1 UNK         0.0719 
     91 H91        21.9202   26.0760   -0.1645 H         1 UNK         0.0809 
     92 H92        22.7896   27.4249    0.5665 H         1 UNK         0.0809 
     93 H93        21.9349   26.2683    1.5787 H         1 UNK         0.0809 
     94 H94        24.4027   24.6911   -1.1017 H         1 UNK         0.2990 
     95 H95        24.9223   26.1372   -3.1399 H         1 UNK         0.0690 
     96 H96        26.9218   27.3030   -4.0480 H         1 UNK         0.0788 
     97 H97        27.4604   27.6919   -2.4162 H         1 UNK         0.0788 
     98 H98        25.9696   28.3811   -3.0401 H         1 UNK         0.0788 
     99 H99        27.6222   25.2257   -2.3796 H         1 UNK         0.2993 
    100 H100       26.6529   21.8538   -1.9477 H         1 UNK         0.0949 
    101 H101       28.2553   22.9688   -4.3166 H         1 UNK         0.0767 
    102 H102       28.3349   21.3193   -3.6945 H         1 UNK         0.0767 
    103 H103       26.8604   21.9055   -4.4451 H         1 UNK         0.0767 
    104 H104       29.2310   23.0155   -2.0279 H         1 UNK         0.3013 
    105 H105       26.2754   27.8847    1.3091 H         1 UNK         0.3121 
    106 H106       26.6400   30.0516    3.2543 H         1 UNK         0.0774 
    107 H107       25.4214   31.3732    1.5677 H         1 UNK         0.0815 
    108 H108       25.5096   30.0567    0.4079 H         1 UNK         0.0815 
    109 H109       24.5635   29.8722    1.8832 H         1 UNK         0.0815 
    110 H110       29.0378   29.4784    3.2026 H         1 UNK         0.2987 
    111 H111       30.6590   30.4474    0.9986 H         1 UNK         0.0949 
    112 H112       31.4899   28.7024    2.5809 H         1 UNK         0.0806 
    113 H113       32.5261   30.1178    2.6391 H         1 UNK         0.0806 
    114 H114       31.3616   29.8316    3.9248 H         1 UNK         0.0806 
    115 H115       31.8956   32.3456    0.9031 H         1 UNK         0.3010 
    116 H116       30.7377   34.7250    2.1380 H         1 UNK         0.0829 
    117 H117       31.3700   34.6732   -0.2749 H         1 UNK         0.0813 
    118 H118       32.2828   35.9014    0.5828 H         1 UNK         0.0813 
    119 H119       33.0560   34.3816    0.1573 H         1 UNK         0.0813 
    120 H120       32.9892   32.5570    3.2723 H         1 UNK         0.3038 
    121 H121       34.0713   34.3166    5.2707 H         1 UNK         0.0769 
    122 H122       36.0112   32.8582    3.3659 H         1 UNK         0.0811 
    123 H123       35.7641   34.6011    3.3822 H         1 UNK         0.0811 
    124 H124       36.4646   33.8101    4.7768 H         1 UNK         0.0811 
    125 H125       35.9057   32.4806    6.3221 H         1 UNK         0.3204 
    126 H126       34.1874   30.4574    7.4489 H         1 UNK         0.0748 
    127 H127       36.1797   29.9483    8.8357 H         1 UNK         0.0771 
    128 H128       37.1833   30.9737    7.8186 H         1 UNK         0.0771 
    129 H129       35.8875   31.6764    8.7882 H         1 UNK         0.0771 
    130 H130       34.0361   29.8637    4.8987 H         1 UNK         0.2980 
    131 H131       34.0889   28.2994    3.3518 H         1 UNK         0.0545 
    132 H132       37.8619   28.7578    2.8032 H         1 UNK         0.3459 
    133 H133       36.7950   29.7428    3.7733 H         1 UNK         0.3459 
    134 H134       34.2355   25.9236    4.0030 H         1 UNK         0.0616 
    135 H135       34.9557   26.3571    5.5371 H         1 UNK         0.0616 
    136 H136       31.8612   25.3709    7.1873 H         1 UNK         0.0634 
    137 H137       33.3436   24.7952    6.4767 H         1 UNK         0.0634 
@<TRIPOS>BOND
     1    1    2 1    
     2    1   72 1    
     3    1   73 1    
     4    1   74 1    
     5    2    3 2    
     6    2    4 am   BACKBONE|DICT|INTERRES
     7    4    5 1    
     8    4   75 1    
     9    5    6 1    
    10    5   35 1    
    11    5   76 1    
    12    6    7 1    
    13    6   77 1    
    14    6   78 1    
    15    7    8 1    
    16    8    9 1    
    17    8   79 1    
    18    8   80 1    
    19    9   10 ar   
    20    9   14 ar   
    21   10   11 ar   
    22   10   81 1    
    23   11   12 ar   
    24   11   71 1    
    25   12   13 ar   
    26   12   82 1    
    27   13   14 ar   
    28   13   15 1    
    29   14   83 1    
    30   15   16 1    
    31   15   84 1    
    32   15   85 1    
    33   16   17 1    
    34   17   18 1    
    35   17   86 1    
    36   17   87 1    
    37   18   19 1    
    38   18   37 1    
    39   18   88 1    
    40   19   20 am   BACKBONE|DICT|INTERRES
    41   19   89 1    
    42   20   21 2    
    43   20   22 1    
    44   22   23 1    
    45   22   24 1    
    46   22   90 1    
    47   23   91 1    
    48   23   92 1    
    49   23   93 1    
    50   24   25 am   BACKBONE|DICT|INTERRES
    51   24   94 1    
    52   25   26 2    
    53   25   27 1    
    54   27   28 1    
    55   27   29 1    
    56   27   95 1    
    57   28   96 1    
    58   28   97 1    
    59   28   98 1    
    60   29   30 am   BACKBONE|DICT|INTERRES
    61   29   99 1    
    62   30   31 2    
    63   30   32 1    
    64   32   33 1    
    65   32   34 1    
    66   32  100 1    
    67   33  101 1    
    68   33  102 1    
    69   33  103 1    
    70   34   35 am   BACKBONE|DICT|INTERRES
    71   34  104 1    
    72   35   36 2    
    73   37   38 2    
    74   37   39 am   BACKBONE|DICT|INTERRES
    75   39   40 1    
    76   39  105 1    
    77   40   41 1    
    78   40   42 1    
    79   40  106 1    
    80   41  107 1    
    81   41  108 1    
    82   41  109 1    
    83   42   43 2    
    84   42   44 am   BACKBONE|DICT|INTERRES
    85   44   45 1    
    86   44  110 1    
    87   45   46 1    
    88   45   47 1    
    89   45  111 1    
    90   46  112 1    
    91   46  113 1    
    92   46  114 1    
    93   47   48 2    
    94   47   49 am   BACKBONE|DICT|INTERRES
    95   49   50 1    
    96   49  115 1    
    97   50   51 1    
    98   50   52 1    
    99   50  116 1    
   100   51  117 1    
   101   51  118 1    
   102   51  119 1    
   103   52   53 2    
   104   52   54 am   BACKBONE|DICT|INTERRES
   105   54   55 1    
   106   54  120 1    
   107   55   56 1    
   108   55   57 1    
   109   55  121 1    
   110   56  122 1    
   111   56  123 1    
   112   56  124 1    
   113   57   58 2    
   114   57   59 am   BACKBONE|DICT|INTERRES
   115   59   60 1    
   116   59  125 1    
   117   60   61 1    
   118   60   62 1    
   119   60  126 1    
   120   61  127 1    
   121   61  128 1    
   122   61  129 1    
   123   62   63 2    
   124   62   64 am   BACKBONE|DICT|INTERRES
   125   64   65 1    
   126   64  130 1    
   127   65   66 1    
   128   65   69 1    
   129   65  131 1    
   130   66   67 am   BACKBONE|DICT|INTERRES
   131   66   68 2    
   132   67  132 1    
   133   67  133 1    
   134   69   70 1    
   135   69  134 1    
   136   69  135 1    
   137   70   71 1    
   138   71  136 1    
   139   71  137 1    
@<TRIPOS>SUBSTRUCTURE
     1 UNK         1 GROUP             0       ****    0 ROOT    
