@<TRIPOS>MOLECULE
3R136
137   139    1
SMALL
USER_CHARGES


@<TRIPOS>ATOM
      1 CA         31.6520   26.4627   -3.8682 C.3       0 UNK        -0.1979 
      2 C          30.7200   25.8281   -2.8465 C.2       0 UNK         0.4864 
      3 O          30.7768   24.6147   -2.6441 O.2       0 UNK        -0.5359 
      4 N          29.8634   26.6438   -2.2136 N.am      1 UNK        -0.4318 
      5 CA         28.9092   26.2682   -1.1566 C.3       1 UNK         0.0824 
      6 C6         29.5923   25.7650    0.1445 C.3       12 UNK        -0.0944 
      7 S7         30.7436   26.9825    0.8626 S.3       12 UNK        -0.2672 
      8 C8         31.9707   25.8786    1.6295 C.3       12 UNK         0.0333 
      9 C9         31.5292   25.4647    3.0245 C.ar      12 UNK        -0.0807 
     10 C10        31.9761   26.1896    4.1314 C.ar      12 UNK        -0.0894 
     11 C11        31.5546   25.8528    5.4194 C.ar      12 UNK        -0.0804 
     12 C12        30.6847   24.7740    5.5985 C.ar      12 UNK        -0.0824 
     13 C13        30.2339   24.0335    4.4995 C.ar      12 UNK        -0.0762 
     14 C14        30.6693   24.3768    3.2142 C.ar      12 UNK        -0.0782 
     15 C15        29.2775   22.8632    4.7106 C.3       12 UNK         0.0230 
     16 S16        27.6093   23.1551    4.0232 S.3       12 UNK        -0.2608 
     17 C17        27.1748   24.7861    4.7165 C.3       12 UNK        -0.0989 
     18 CA         27.2690   25.8705    3.6151 C.3       5 UNK         0.0716 
     19 N          26.0730   25.9078    2.7666 N.am      5 UNK        -0.4135 
     20 C          25.9515   26.6640    1.6686 C.2       4 UNK         0.5031 
     21 O          26.8651   27.3494    1.2080 O.2       4 UNK        -0.5229 
     22 CA         24.5974   26.6243    0.9547 C.3       4 UNK         0.0329 
     23 CB         24.3535   27.8799    0.0917 C.3       4 UNK        -0.2001 
     24 N          24.5347   25.4271    0.1208 N.am      4 UNK        -0.4303 
     25 C          23.4008   24.8406   -0.2871 C.2       3 UNK         0.5044 
     26 O          22.2809   25.2118    0.0705 O.2       3 UNK        -0.5152 
     27 CA         23.5324   23.6410   -1.2522 C.3       3 UNK         0.0319 
     28 CB         22.2682   23.4232   -2.1116 C.3       3 UNK        -0.2001 
     29 N          24.7326   23.6950   -2.0972 N.am      3 UNK        -0.4354 
     30 C          25.0678   24.6465   -2.9824 C.2       2 UNK         0.4964 
     31 O          24.3602   25.6124   -3.2740 O.2       2 UNK        -0.5047 
     32 CA         26.4682   24.5141   -3.6086 C.3       2 UNK         0.0288 
     33 CB         26.4534   24.8539   -5.1097 C.3       2 UNK        -0.2113 
     34 N          27.4565   25.3635   -2.9365 N.am      2 UNK        -0.4145 
     35 C          27.8054   25.2973   -1.6412 C.2       1 UNK         0.5006 
     36 O          27.2878   24.5125   -0.8418 O.2       1 UNK        -0.5103 
     37 C          27.5999   27.2562    4.2015 C.2       5 UNK         0.5055 
     38 O          26.6948   27.9857    4.6122 O.2       5 UNK        -0.5220 
     39 N          28.9024   27.5686    4.2119 N.am      6 UNK        -0.4450 
     40 CA         29.5355   28.8178    4.6451 C.3       6 UNK         0.0367 
     41 CB         29.1762   29.1726    6.1031 C.3       6 UNK        -0.1929 
     42 C          29.3450   30.0072    3.6871 C.2       6 UNK         0.5070 
     43 O          29.8283   31.0929    4.0072 O.2       6 UNK        -0.5237 
     44 N          28.7270   29.8054    2.5117 N.am      7 UNK        -0.4739 
     45 CA         28.5370   30.8500    1.4940 C.3       7 UNK         0.0276 
     46 CB         27.6264   30.3288    0.3728 C.3       7 UNK        -0.1927 
     47 C          29.8535   31.3913    0.9069 C.2       7 UNK         0.5013 
     48 O          29.9218   32.5727    0.5667 O.2       7 UNK        -0.5193 
     49 N          30.8786   30.5312    0.8277 N.am      8 UNK        -0.4253 
     50 CA         32.2371   30.8953    0.4151 C.3       8 UNK         0.0242 
     51 CB         32.9473   29.6435   -0.1292 C.3       8 UNK        -0.2000 
     52 C          33.0712   31.5318    1.5451 C.2       8 UNK         0.4948 
     53 O          34.1647   32.0217    1.2616 O.2       8 UNK        -0.5275 
     54 N          32.5748   31.4858    2.7948 N.am      9 UNK        -0.4246 
     55 CA         33.2247   31.9436    4.0330 C.3       9 UNK         0.0261 
     56 CB         33.3310   33.4833    4.0526 C.3       9 UNK        -0.1959 
     57 C          34.5730   31.2460    4.3202 C.2       9 UNK         0.5033 
     58 O          35.4813   31.8653    4.8774 O.2       9 UNK        -0.5390 
     59 N          34.6843   29.9711    3.9191 N.am      10 UNK        -0.4215 
     60 CA         35.9113   29.1737    3.9987 C.3       10 UNK         0.0240 
     61 CB         35.7780   27.9513    3.0744 C.3       10 UNK        -0.1982 
     62 C          36.2812   28.7302    5.4250 C.2       10 UNK         0.4970 
     63 O          37.4682   28.5614    5.7079 O.2       10 UNK        -0.4916 
     64 N          35.2738   28.5248    6.2823 N.am      11 UNK        -0.4279 
     65 CA         35.4457   28.0908    7.6764 C.3       11 UNK         0.1003 
     66 C          35.9619   29.2406    8.5814 C.2       11 UNK         0.5709 
     67 N          36.8512   28.9438    9.5192 N.am      11 UNK        -0.7358 
     68 O          35.5303   30.3866    8.4697 O.2       11 UNK        -0.4999 
     69 C69        34.1467   27.4723    8.2558 C.3       12 UNK        -0.0954 
     70 S70        33.5752   26.0335    7.2891 S.3       12 UNK        -0.2268 
     71 C71        32.0205   26.6781    6.6073 C.3       12 UNK         0.0203 
     72 H72        31.4867   26.0230   -4.8515 H         1 UNK         0.0888 
     73 H73        31.5003   27.5391   -3.9476 H         1 UNK         0.0888 
     74 H74        32.6900   26.2878   -3.5863 H         1 UNK         0.0888 
     75 H75        29.8810   27.6293   -2.4360 H         1 UNK         0.3017 
     76 H76        28.3791   27.1873   -0.9073 H         1 UNK         0.0873 
     77 H77        28.8475   25.5381    0.9042 H         1 UNK         0.0745 
     78 H78        30.1148   24.8271   -0.0476 H         1 UNK         0.0745 
     79 H79        32.9255   26.4041    1.6804 H         1 UNK         0.0705 
     80 H80        32.1469   25.0019    1.0048 H         1 UNK         0.0705 
     81 H81        32.6426   27.0284    3.9899 H         1 UNK         0.1334 
     82 H82        30.3560   24.5153    6.5961 H         1 UNK         0.1417 
     83 H83        30.3202   23.8095    2.3619 H         1 UNK         0.1562 
     84 H84        29.1801   22.6331    5.7728 H         1 UNK         0.0748 
     85 H85        29.6977   21.9702    4.2458 H         1 UNK         0.0748 
     86 H86        27.8359   24.9988    5.5586 H         1 UNK         0.0940 
     87 H87        26.1705   24.7441    5.1415 H         1 UNK         0.0940 
     88 H88        28.1003   25.6135    2.9598 H         1 UNK         0.0703 
     89 H89        25.2828   25.3625    3.0769 H         1 UNK         0.3081 
     90 H90        23.8213   26.5775    1.7217 H         1 UNK         0.0719 
     91 H91        25.0739   27.9539   -0.7242 H         1 UNK         0.0809 
     92 H92        23.3552   27.8758   -0.3457 H         1 UNK         0.0809 
     93 H93        24.4403   28.7872    0.6905 H         1 UNK         0.0809 
     94 H94        25.4270   25.0508   -0.1888 H         1 UNK         0.2990 
     95 H95        23.6513   22.7623   -0.6167 H         1 UNK         0.0690 
     96 H96        22.3810   22.5647   -2.7735 H         1 UNK         0.0788 
     97 H97        22.0422   24.2946   -2.7271 H         1 UNK         0.0788 
     98 H98        21.3956   23.2337   -1.4851 H         1 UNK         0.0788 
     99 H99        25.4251   22.9853   -1.8973 H         1 UNK         0.2993 
    100 H100       26.7971   23.4776   -3.5061 H         1 UNK         0.0949 
    101 H101       26.1933   25.8985   -5.2870 H         1 UNK         0.0767 
    102 H102       27.4246   24.6674   -5.5686 H         1 UNK         0.0767 
    103 H103       25.7227   24.2418   -5.6403 H         1 UNK         0.0767 
    104 H104       27.9216   26.0492   -3.5126 H         1 UNK         0.3013 
    105 H105       29.5483   26.8790    3.8472 H         1 UNK         0.3121 
    106 H106       30.6063   28.6194    4.6243 H         1 UNK         0.0774 
    107 H107       28.1409   29.5004    6.1989 H         1 UNK         0.0815 
    108 H108       29.3226   28.3222    6.7684 H         1 UNK         0.0815 
    109 H109       29.8040   29.9841    6.4731 H         1 UNK         0.0815 
    110 H110       28.3475   28.8900    2.3013 H         1 UNK         0.2987 
    111 H111       28.0319   31.6898    1.9766 H         1 UNK         0.0949 
    112 H112       27.4594   31.0948   -0.3858 H         1 UNK         0.0806 
    113 H113       28.0593   29.4623   -0.1271 H         1 UNK         0.0806 
    114 H114       26.6493   30.0406    0.7597 H         1 UNK         0.0806 
    115 H115       30.7212   29.5690    1.0970 H         1 UNK         0.3010 
    116 H116       32.1742   31.6267   -0.3936 H         1 UNK         0.0829 
    117 H117       32.3794   29.1813   -0.9370 H         1 UNK         0.0813 
    118 H118       33.9300   29.8956   -0.5301 H         1 UNK         0.0813 
    119 H119       33.0987   28.8936    0.6476 H         1 UNK         0.0813 
    120 H120       31.6324   31.1334    2.9187 H         1 UNK         0.3038 
    121 H121       32.5593   31.6531    4.8476 H         1 UNK         0.0769 
    122 H122       33.6840   33.8402    5.0209 H         1 UNK         0.0811 
    123 H123       32.3621   33.9488    3.8715 H         1 UNK         0.0811 
    124 H124       34.0267   33.8504    3.2974 H         1 UNK         0.0811 
    125 H125       33.8963   29.5526    3.4496 H         1 UNK         0.3204 
    126 H126       36.7336   29.7889    3.6263 H         1 UNK         0.0748 
    127 H127       36.7017   27.3708    3.0633 H         1 UNK         0.0771 
    128 H128       34.9803   27.2817    3.3969 H         1 UNK         0.0771 
    129 H129       35.5741   28.2496    2.0456 H         1 UNK         0.0771 
    130 H130       34.3319   28.7212    5.9863 H         1 UNK         0.2980 
    131 H131       36.2045   27.3051    7.6779 H         1 UNK         0.0545 
    132 H132       37.1847   29.6757   10.1269 H         1 UNK         0.3459 
    133 H133       37.2015   28.0045    9.6280 H         1 UNK         0.3459 
    134 H134       33.3552   28.2214    8.3182 H         1 UNK         0.0616 
    135 H135       34.3166   27.1287    9.2779 H         1 UNK         0.0616 
    136 H136       31.2602   26.6855    7.3898 H         1 UNK         0.0634 
    137 H137       32.1577   27.7158    6.3010 H         1 UNK         0.0634 
@<TRIPOS>BOND
     1    1    2 1    
     2    1   72 1    
     3    1   73 1    
     4    1   74 1    
     5    2    3 2    
     6    2    4 am   BACKBONE|DICT|INTERRES
     7    4    5 1    
     8    4   75 1    
     9    5    6 1    
    10    5   35 1    
    11    5   76 1    
    12    6    7 1    
    13    6   77 1    
    14    6   78 1    
    15    7    8 1    
    16    8    9 1    
    17    8   79 1    
    18    8   80 1    
    19    9   10 ar   
    20    9   14 ar   
    21   10   11 ar   
    22   10   81 1    
    23   11   12 ar   
    24   11   71 1    
    25   12   13 ar   
    26   12   82 1    
    27   13   14 ar   
    28   13   15 1    
    29   14   83 1    
    30   15   16 1    
    31   15   84 1    
    32   15   85 1    
    33   16   17 1    
    34   17   18 1    
    35   17   86 1    
    36   17   87 1    
    37   18   19 1    
    38   18   37 1    
    39   18   88 1    
    40   19   20 am   BACKBONE|DICT|INTERRES
    41   19   89 1    
    42   20   21 2    
    43   20   22 1    
    44   22   23 1    
    45   22   24 1    
    46   22   90 1    
    47   23   91 1    
    48   23   92 1    
    49   23   93 1    
    50   24   25 am   BACKBONE|DICT|INTERRES
    51   24   94 1    
    52   25   26 2    
    53   25   27 1    
    54   27   28 1    
    55   27   29 1    
    56   27   95 1    
    57   28   96 1    
    58   28   97 1    
    59   28   98 1    
    60   29   30 am   BACKBONE|DICT|INTERRES
    61   29   99 1    
    62   30   31 2    
    63   30   32 1    
    64   32   33 1    
    65   32   34 1    
    66   32  100 1    
    67   33  101 1    
    68   33  102 1    
    69   33  103 1    
    70   34   35 am   BACKBONE|DICT|INTERRES
    71   34  104 1    
    72   35   36 2    
    73   37   38 2    
    74   37   39 am   BACKBONE|DICT|INTERRES
    75   39   40 1    
    76   39  105 1    
    77   40   41 1    
    78   40   42 1    
    79   40  106 1    
    80   41  107 1    
    81   41  108 1    
    82   41  109 1    
    83   42   43 2    
    84   42   44 am   BACKBONE|DICT|INTERRES
    85   44   45 1    
    86   44  110 1    
    87   45   46 1    
    88   45   47 1    
    89   45  111 1    
    90   46  112 1    
    91   46  113 1    
    92   46  114 1    
    93   47   48 2    
    94   47   49 am   BACKBONE|DICT|INTERRES
    95   49   50 1    
    96   49  115 1    
    97   50   51 1    
    98   50   52 1    
    99   50  116 1    
   100   51  117 1    
   101   51  118 1    
   102   51  119 1    
   103   52   53 2    
   104   52   54 am   BACKBONE|DICT|INTERRES
   105   54   55 1    
   106   54  120 1    
   107   55   56 1    
   108   55   57 1    
   109   55  121 1    
   110   56  122 1    
   111   56  123 1    
   112   56  124 1    
   113   57   58 2    
   114   57   59 am   BACKBONE|DICT|INTERRES
   115   59   60 1    
   116   59  125 1    
   117   60   61 1    
   118   60   62 1    
   119   60  126 1    
   120   61  127 1    
   121   61  128 1    
   122   61  129 1    
   123   62   63 2    
   124   62   64 am   BACKBONE|DICT|INTERRES
   125   64   65 1    
   126   64  130 1    
   127   65   66 1    
   128   65   69 1    
   129   65  131 1    
   130   66   67 am   BACKBONE|DICT|INTERRES
   131   66   68 2    
   132   67  132 1    
   133   67  133 1    
   134   69   70 1    
   135   69  134 1    
   136   69  135 1    
   137   70   71 1    
   138   71  136 1    
   139   71  137 1    
@<TRIPOS>SUBSTRUCTURE
     1 UNK         1 GROUP             0       ****    0 ROOT    
