@<TRIPOS>MOLECULE
3R136
137   139    1
SMALL
USER_CHARGES


@<TRIPOS>ATOM
      1 CA         28.8790   25.9911   -3.5386 C.3       0 UNK        -0.1979 
      2 C          28.3117   25.3802   -2.2669 C.2       0 UNK         0.4864 
      3 O          27.1898   25.7100   -1.8837 O.2       0 UNK        -0.5359 
      4 N          29.0696   24.4776   -1.6271 N.am      1 UNK        -0.4318 
      5 CA         28.7718   23.8238   -0.3411 C.3       1 UNK         0.0824 
      6 C6         29.8543   22.7811    0.0382 C.3       12 UNK        -0.0944 
      7 S7         31.5594   23.4167   -0.0874 S.3       12 UNK        -0.2672 
      8 C8         32.2549   22.9389    1.5237 C.3       12 UNK         0.0333 
      9 C9         31.9022   23.9375    2.6148 C.ar      12 UNK        -0.0807 
     10 C10        32.5222   25.1893    2.6275 C.ar      12 UNK        -0.0894 
     11 C11        32.2708   26.0997    3.6572 C.ar      12 UNK        -0.0804 
     12 C12        31.3820   25.7500    4.6765 C.ar      12 UNK        -0.0824 
     13 C13        30.7274   24.5136    4.6594 C.ar      12 UNK        -0.0762 
     14 C14        30.9941   23.6081    3.6265 C.ar      12 UNK        -0.0782 
     15 C15        29.7448   24.1512    5.7657 C.3       12 UNK         0.0230 
     16 S16        28.0213   24.5407    5.3137 S.3       12 UNK        -0.2608 
     17 C17        28.0563   26.3639    5.2431 C.3       12 UNK        -0.0989 
     18 CA         28.0437   26.8703    3.7798 C.3       5 UNK         0.0716 
     19 N          26.7344   26.6477    3.1481 N.am      5 UNK        -0.4135 
     20 C          26.4905   26.7305    1.8343 C.2       4 UNK         0.5031 
     21 O          27.3617   26.9227    0.9860 O.2       4 UNK        -0.5229 
     22 CA         25.0138   26.7200    1.4278 C.3       4 UNK         0.0329 
     23 CB         24.4391   28.1498    1.5337 C.3       4 UNK        -0.2001 
     24 N          24.8653   26.2074    0.0668 N.am      4 UNK        -0.4303 
     25 C          23.6978   25.8481   -0.4864 C.2       3 UNK         0.5044 
     26 O          22.6103   25.9291    0.0867 O.2       3 UNK        -0.5152 
     27 CA         23.7465   25.2682   -1.9059 C.3       3 UNK         0.0319 
     28 CB         24.0625   26.3546   -2.9483 C.3       3 UNK        -0.2001 
     29 N          24.7310   24.1908   -1.9769 N.am      3 UNK        -0.4354 
     30 C          24.4800   22.9225   -1.6181 C.2       2 UNK         0.4964 
     31 O          23.3639   22.5112   -1.2981 O.2       2 UNK        -0.5047 
     32 CA         25.6595   21.9334   -1.6126 C.3       2 UNK         0.0288 
     33 CB         25.6828   21.1171   -2.9154 C.3       2 UNK        -0.2113 
     34 N          26.9612   22.5753   -1.4276 N.am      2 UNK        -0.4145 
     35 C          27.3858   23.1457   -0.2899 C.2       1 UNK         0.5006 
     36 O          26.7391   23.1526    0.7585 O.2       1 UNK        -0.5103 
     37 C          28.5028   28.3463    3.6996 C.2       5 UNK         0.5055 
     38 O          29.6862   28.6213    3.8917 O.2       5 UNK        -0.5220 
     39 N          27.5783   29.2654    3.3828 N.am      6 UNK        -0.4450 
     40 CA         27.8181   30.6905    3.1363 C.3       6 UNK         0.0367 
     41 CB         26.4790   31.4395    3.2595 C.3       6 UNK        -0.1929 
     42 C          28.5021   30.9955    1.7845 C.2       6 UNK         0.5070 
     43 O          28.6421   32.1690    1.4387 O.2       6 UNK        -0.5237 
     44 N          28.9173   29.9598    1.0382 N.am      7 UNK        -0.4739 
     45 CA         29.6614   30.0485   -0.2242 C.3       7 UNK         0.0276 
     46 CB         29.8035   28.6357   -0.8141 C.3       7 UNK        -0.1927 
     47 C          31.0425   30.7274   -0.1070 C.2       7 UNK         0.5013 
     48 O          31.5634   31.2020   -1.1174 O.2       7 UNK        -0.5193 
     49 N          31.5968   30.7825    1.1088 N.am      8 UNK        -0.4253 
     50 CA         32.7630   31.5763    1.4827 C.3       8 UNK         0.0242 
     51 CB         34.0160   30.6850    1.5063 C.3       8 UNK        -0.2000 
     52 C          32.4900   32.1902    2.8619 C.2       8 UNK         0.4948 
     53 O          31.5844   31.7335    3.5649 O.2       8 UNK        -0.5275 
     54 N          33.2808   33.2078    3.2299 N.am      9 UNK        -0.4246 
     55 CA         33.1641   33.9327    4.5018 C.3       9 UNK         0.0261 
     56 CB         34.0965   35.1553    4.4837 C.3       9 UNK        -0.1959 
     57 C          33.4396   33.0618    5.7417 C.2       9 UNK         0.5033 
     58 O          32.7968   33.2618    6.7736 O.2       9 UNK        -0.5390 
     59 N          34.3708   32.1108    5.6127 N.am      10 UNK        -0.4215 
     60 CA         34.7205   31.1070    6.6110 C.3       10 UNK         0.0240 
     61 CB         35.5544   31.7342    7.7457 C.3       10 UNK        -0.1982 
     62 C          35.5084   29.9972    5.9087 C.2       10 UNK         0.4970 
     63 O          36.2181   30.2843    4.9407 O.2       10 UNK        -0.4916 
     64 N          35.3866   28.7711    6.4260 N.am      11 UNK        -0.4279 
     65 CA         36.1170   27.5742    5.9720 C.3       11 UNK         0.1003 
     66 C          36.8248   26.8248    7.1398 C.2       11 UNK         0.5709 
     67 N          36.9026   27.3829    8.3432 N.am      11 UNK        -0.7358 
     68 O          37.3369   25.7234    6.9524 O.2       11 UNK        -0.4999 
     69 C69        35.2178   26.6303    5.1247 C.3       12 UNK        -0.0954 
     70 S70        34.7531   27.3620    3.5202 S.3       12 UNK        -0.2268 
     71 C71        32.9396   27.4686    3.6584 C.3       12 UNK         0.0203 
     72 H72        28.2625   25.7148   -4.3935 H         1 UNK         0.0888 
     73 H73        28.8847   27.0777   -3.4606 H         1 UNK         0.0888 
     74 H74        29.8991   25.6595   -3.7312 H         1 UNK         0.0888 
     75 H75        29.9850   24.2611   -1.9965 H         1 UNK         0.3017 
     76 H76        28.7730   24.6108    0.4163 H         1 UNK         0.0873 
     77 H77        29.6776   22.4183    1.0527 H         1 UNK         0.0745 
     78 H78        29.7909   21.9047   -0.6103 H         1 UNK         0.0745 
     79 H79        33.3408   22.8881    1.4304 H         1 UNK         0.0705 
     80 H80        31.9290   21.9315    1.7873 H         1 UNK         0.0705 
     81 H81        33.2141   25.4505    1.8382 H         1 UNK         0.1334 
     82 H82        31.1885   26.4521    5.4752 H         1 UNK         0.1417 
     83 H83        30.5024   22.6448    3.6185 H         1 UNK         0.1562 
     84 H84        30.0042   24.6653    6.6926 H         1 UNK         0.0748 
     85 H85        29.8165   23.0846    5.9843 H         1 UNK         0.0748 
     86 H86        28.9309   26.7236    5.7865 H         1 UNK         0.0940 
     87 H87        27.1975   26.7528    5.7933 H         1 UNK         0.0940 
     88 H88        28.7833   26.3000    3.2124 H         1 UNK         0.0703 
     89 H89        25.9649   26.4701    3.7777 H         1 UNK         0.3081 
     90 H90        24.4725   26.0557    2.1049 H         1 UNK         0.0719 
     91 H91        24.5343   28.5419    2.5465 H         1 UNK         0.0809 
     92 H92        23.3782   28.1816    1.2869 H         1 UNK         0.0809 
     93 H93        24.9559   28.8387    0.8638 H         1 UNK         0.0809 
     94 H94        25.7321   26.1065   -0.4585 H         1 UNK         0.2990 
     95 H95        22.7585   24.8666   -2.1422 H         1 UNK         0.0690 
     96 H96        24.0899   25.9395   -3.9558 H         1 UNK         0.0788 
     97 H97        25.0193   26.8421   -2.7617 H         1 UNK         0.0788 
     98 H98        23.2976   27.1321   -2.9387 H         1 UNK         0.0788 
     99 H99        25.6897   24.4777   -2.1504 H         1 UNK         0.2993 
    100 H100       25.5017   21.2455   -0.7788 H         1 UNK         0.0949 
    101 H101       24.7344   20.5999   -3.0688 H         1 UNK         0.0767 
    102 H102       25.8526   21.7512   -3.7867 H         1 UNK         0.0767 
    103 H103       26.4640   20.3569   -2.8942 H         1 UNK         0.0767 
    104 H104       27.5645   22.6228   -2.2359 H         1 UNK         0.3013 
    105 H105       26.6328   28.9462    3.2411 H         1 UNK         0.3121 
    106 H106       28.4887   31.0604    3.9153 H         1 UNK         0.0774 
    107 H107       26.6204   32.5166    3.1598 H         1 UNK         0.0815 
    108 H108       25.7723   31.1320    2.4878 H         1 UNK         0.0815 
    109 H109       26.0145   31.2683    4.2308 H         1 UNK         0.0815 
    110 H110       28.7277   29.0260    1.3760 H         1 UNK         0.2987 
    111 H111       29.0673   30.6515   -0.9140 H         1 UNK         0.0949 
    112 H112       28.8275   28.1886   -1.0045 H         1 UNK         0.0806 
    113 H113       30.3398   28.6576   -1.7637 H         1 UNK         0.0806 
    114 H114       30.3501   27.9706   -0.1440 H         1 UNK         0.0806 
    115 H115       31.0665   30.4321    1.8983 H         1 UNK         0.3010 
    116 H116       32.9025   32.3896    0.7671 H         1 UNK         0.0829 
    117 H117       34.1573   30.1701    0.5559 H         1 UNK         0.0813 
    118 H118       34.9150   31.2735    1.6925 H         1 UNK         0.0813 
    119 H119       33.9563   29.9318    2.2905 H         1 UNK         0.0813 
    120 H120       33.9995   33.5223    2.5933 H         1 UNK         0.3038 
    121 H121       32.1357   34.2920    4.5809 H         1 UNK         0.0769 
    122 H122       35.1426   34.8659    4.3752 H         1 UNK         0.0811 
    123 H123       34.0109   35.7238    5.4109 H         1 UNK         0.0811 
    124 H124       33.8477   35.8333    3.6671 H         1 UNK         0.0811 
    125 H125       34.8522   31.9983    4.7288 H         1 UNK         0.3204 
    126 H126       33.7997   30.6844    7.0190 H         1 UNK         0.0748 
    127 H127       35.8437   30.9840    8.4824 H         1 UNK         0.0771 
    128 H128       36.4698   32.1898    7.3657 H         1 UNK         0.0771 
    129 H129       34.9946   32.5042    8.2767 H         1 UNK         0.0771 
    130 H130       34.7778   28.6287    7.2190 H         1 UNK         0.2980 
    131 H131       36.9462   27.8897    5.3363 H         1 UNK         0.0545 
    132 H132       36.5435   28.3075    8.5143 H         1 UNK         0.3459 
    133 H133       37.3719   26.8830    9.0822 H         1 UNK         0.3459 
    134 H134       34.3250   26.3494    5.6855 H         1 UNK         0.0616 
    135 H135       35.7356   25.6974    4.8958 H         1 UNK         0.0616 
    136 H136       32.5522   28.0404    2.8144 H         1 UNK         0.0634 
    137 H137       32.6838   28.0349    4.5555 H         1 UNK         0.0634 
@<TRIPOS>BOND
     1    1    2 1    
     2    1   72 1    
     3    1   73 1    
     4    1   74 1    
     5    2    3 2    
     6    2    4 am   BACKBONE|DICT|INTERRES
     7    4    5 1    
     8    4   75 1    
     9    5    6 1    
    10    5   35 1    
    11    5   76 1    
    12    6    7 1    
    13    6   77 1    
    14    6   78 1    
    15    7    8 1    
    16    8    9 1    
    17    8   79 1    
    18    8   80 1    
    19    9   10 ar   
    20    9   14 ar   
    21   10   11 ar   
    22   10   81 1    
    23   11   12 ar   
    24   11   71 1    
    25   12   13 ar   
    26   12   82 1    
    27   13   14 ar   
    28   13   15 1    
    29   14   83 1    
    30   15   16 1    
    31   15   84 1    
    32   15   85 1    
    33   16   17 1    
    34   17   18 1    
    35   17   86 1    
    36   17   87 1    
    37   18   19 1    
    38   18   37 1    
    39   18   88 1    
    40   19   20 am   BACKBONE|DICT|INTERRES
    41   19   89 1    
    42   20   21 2    
    43   20   22 1    
    44   22   23 1    
    45   22   24 1    
    46   22   90 1    
    47   23   91 1    
    48   23   92 1    
    49   23   93 1    
    50   24   25 am   BACKBONE|DICT|INTERRES
    51   24   94 1    
    52   25   26 2    
    53   25   27 1    
    54   27   28 1    
    55   27   29 1    
    56   27   95 1    
    57   28   96 1    
    58   28   97 1    
    59   28   98 1    
    60   29   30 am   BACKBONE|DICT|INTERRES
    61   29   99 1    
    62   30   31 2    
    63   30   32 1    
    64   32   33 1    
    65   32   34 1    
    66   32  100 1    
    67   33  101 1    
    68   33  102 1    
    69   33  103 1    
    70   34   35 am   BACKBONE|DICT|INTERRES
    71   34  104 1    
    72   35   36 2    
    73   37   38 2    
    74   37   39 am   BACKBONE|DICT|INTERRES
    75   39   40 1    
    76   39  105 1    
    77   40   41 1    
    78   40   42 1    
    79   40  106 1    
    80   41  107 1    
    81   41  108 1    
    82   41  109 1    
    83   42   43 2    
    84   42   44 am   BACKBONE|DICT|INTERRES
    85   44   45 1    
    86   44  110 1    
    87   45   46 1    
    88   45   47 1    
    89   45  111 1    
    90   46  112 1    
    91   46  113 1    
    92   46  114 1    
    93   47   48 2    
    94   47   49 am   BACKBONE|DICT|INTERRES
    95   49   50 1    
    96   49  115 1    
    97   50   51 1    
    98   50   52 1    
    99   50  116 1    
   100   51  117 1    
   101   51  118 1    
   102   51  119 1    
   103   52   53 2    
   104   52   54 am   BACKBONE|DICT|INTERRES
   105   54   55 1    
   106   54  120 1    
   107   55   56 1    
   108   55   57 1    
   109   55  121 1    
   110   56  122 1    
   111   56  123 1    
   112   56  124 1    
   113   57   58 2    
   114   57   59 am   BACKBONE|DICT|INTERRES
   115   59   60 1    
   116   59  125 1    
   117   60   61 1    
   118   60   62 1    
   119   60  126 1    
   120   61  127 1    
   121   61  128 1    
   122   61  129 1    
   123   62   63 2    
   124   62   64 am   BACKBONE|DICT|INTERRES
   125   64   65 1    
   126   64  130 1    
   127   65   66 1    
   128   65   69 1    
   129   65  131 1    
   130   66   67 am   BACKBONE|DICT|INTERRES
   131   66   68 2    
   132   67  132 1    
   133   67  133 1    
   134   69   70 1    
   135   69  134 1    
   136   69  135 1    
   137   70   71 1    
   138   71  136 1    
   139   71  137 1    
@<TRIPOS>SUBSTRUCTURE
     1 UNK         1 GROUP             0       ****    0 ROOT    
