@<TRIPOS>MOLECULE
3R136
137   139    1
SMALL
USER_CHARGES


@<TRIPOS>ATOM
      1 CA         33.4598   25.5337   -3.9427 C.3       0 UNK        -0.1979 
      2 C          32.1233   25.6428   -3.2250 C.2       0 UNK         0.4864 
      3 O          31.6056   26.7486   -3.0562 O.2       0 UNK        -0.5359 
      4 N          31.5526   24.5068   -2.8025 N.am      1 UNK        -0.4318 
      5 CA         30.2807   24.4173   -2.0773 C.3       1 UNK         0.0824 
      6 C6         30.1857   23.1292   -1.2204 C.3       12 UNK        -0.0944 
      7 S7         31.3909   23.1104    0.1484 S.3       12 UNK        -0.2672 
      8 C8         30.7367   24.4773    1.1567 C.3       12 UNK         0.0333 
      9 C9         30.9859   24.2732    2.6387 C.ar      12 UNK        -0.0807 
     10 C10        31.8982   25.0793    3.3230 C.ar      12 UNK        -0.0894 
     11 C11        32.0526   24.9607    4.7071 C.ar      12 UNK        -0.0804 
     12 C12        31.2955   24.0148    5.4049 C.ar      12 UNK        -0.0824 
     13 C13        30.3713   23.2121    4.7286 C.ar      12 UNK        -0.0762 
     14 C14        30.2343   23.3323    3.3439 C.ar      12 UNK        -0.0782 
     15 C15        29.4499   22.2799    5.4964 C.3       12 UNK         0.0230 
     16 S16        27.7423   22.9193    5.4947 S.3       12 UNK        -0.2608 
     17 C17        27.9474   24.5217    6.3500 C.3       12 UNK        -0.0989 
     18 CA         28.0500   25.7528    5.3992 C.3       5 UNK         0.0716 
     19 N          26.9159   25.7917    4.4613 N.am      5 UNK        -0.4135 
     20 C          26.7493   26.5435    3.3630 C.2       4 UNK         0.5031 
     21 O          27.5313   27.4252    2.9925 O.2       4 UNK        -0.5229 
     22 CA         25.4296   26.3021    2.6049 C.3       4 UNK         0.0329 
     23 CB         24.2487   26.8835    3.4034 C.3       4 UNK        -0.2001 
     24 N          25.3856   26.8692    1.2536 N.am      4 UNK        -0.4303 
     25 C          26.1637   26.5275    0.2186 C.2       3 UNK         0.5044 
     26 O          27.0679   25.6885    0.2716 O.2       3 UNK        -0.5152 
     27 CA         25.8454   27.2275   -1.1142 C.3       3 UNK         0.0319 
     28 CB         25.8655   28.7655   -0.9969 C.3       3 UNK        -0.2001 
     29 N          26.8079   26.7979   -2.1235 N.am      3 UNK        -0.4354 
     30 C          26.6071   26.7483   -3.4464 C.2       2 UNK         0.4964 
     31 O          25.5463   27.0690   -3.9842 O.2       2 UNK        -0.5047 
     32 CA         27.7841   26.2852   -4.3308 C.3       2 UNK         0.0288 
     33 CB         28.2472   27.4239   -5.2560 C.3       2 UNK        -0.2113 
     34 N          28.9367   25.8204   -3.5550 N.am      2 UNK        -0.4145 
     35 C          29.0689   24.6037   -3.0136 C.2       1 UNK         0.5006 
     36 O          28.2801   23.6779   -3.2126 O.2       1 UNK        -0.5103 
     37 C          28.2538   27.0613    6.2089 C.2       5 UNK         0.5055 
     38 O          28.4012   27.0085    7.4318 O.2       5 UNK        -0.5220 
     39 N          28.2516   28.2061    5.5224 N.am      6 UNK        -0.4450 
     40 CA         28.4397   29.5652    6.0360 C.3       6 UNK         0.0367 
     41 CB         27.3681   29.9408    7.0818 C.3       6 UNK        -0.1929 
     42 C          28.4000   30.5772    4.8831 C.2       6 UNK         0.5070 
     43 O          29.0938   31.5928    4.9403 O.2       6 UNK        -0.5237 
     44 N          27.5727   30.2964    3.8668 N.am      7 UNK        -0.4739 
     45 CA         27.4228   31.1172    2.6675 C.3       7 UNK         0.0276 
     46 CB         26.0503   30.8327    2.0376 C.3       7 UNK        -0.1927 
     47 C          28.5494   30.8778    1.6502 C.2       7 UNK         0.5013 
     48 O          28.9755   31.8310    0.9965 O.2       7 UNK        -0.5193 
     49 N          29.0015   29.6231    1.5274 N.am      8 UNK        -0.4253 
     50 CA         30.0979   29.2233    0.6473 C.3       8 UNK         0.0242 
     51 CB         29.7309   27.8990   -0.0372 C.3       8 UNK        -0.2000 
     52 C          31.4062   29.0665    1.4338 C.2       8 UNK         0.4948 
     53 O          31.3771   28.7005    2.6101 O.2       8 UNK        -0.5275 
     54 N          32.5248   29.2899    0.7284 N.am      9 UNK        -0.4246 
     55 CA         33.9173   29.1668    1.1784 C.3       9 UNK         0.0261 
     56 CB         34.2394   27.7043    1.5582 C.3       9 UNK        -0.1959 
     57 C          34.2995   30.1601    2.2955 C.2       9 UNK         0.5033 
     58 O          33.5619   31.1072    2.5796 O.2       9 UNK        -0.5390 
     59 N          35.4787   29.9376    2.8926 N.am      10 UNK        -0.4215 
     60 CA         36.0753   30.7757    3.9372 C.3       10 UNK         0.0240 
     61 CB         37.5211   30.3148    4.1860 C.3       10 UNK        -0.1982 
     62 C          35.2879   30.8059    5.2597 C.2       10 UNK         0.4970 
     63 O          35.4400   31.7661    6.0162 O.2       10 UNK        -0.4916 
     64 N          34.4733   29.7740    5.5204 N.am      11 UNK        -0.4279 
     65 CA         33.5752   29.7117    6.6818 C.3       11 UNK         0.1003 
     66 C          32.3204   30.6306    6.5791 C.2       11 UNK         0.5709 
     67 N          31.9914   31.1818    5.4163 N.am      11 UNK        -0.7358 
     68 O          31.6382   30.8458    7.5780 O.2       11 UNK        -0.4999 
     69 C69        33.2181   28.2470    7.0575 C.3       12 UNK        -0.0954 
     70 S70        32.0797   27.4236    5.8912 S.3       12 UNK        -0.2268 
     71 C71        32.9771   25.9043    5.4594 C.3       12 UNK         0.0203 
     72 H72        33.3776   25.9385   -4.9510 H         1 UNK         0.0888 
     73 H73        34.2191   26.1028   -3.4071 H         1 UNK         0.0888 
     74 H74        33.7994   24.5008   -4.0173 H         1 UNK         0.0888 
     75 H75        32.0138   23.6256   -2.9794 H         1 UNK         0.3017 
     76 H76        30.2324   25.2624   -1.3904 H         1 UNK         0.0873 
     77 H77        29.1902   23.0224   -0.7836 H         1 UNK         0.0745 
     78 H78        30.3406   22.2427   -1.8379 H         1 UNK         0.0745 
     79 H79        31.1920   25.4092    0.8187 H         1 UNK         0.0705 
     80 H80        29.6617   24.5836    1.0004 H         1 UNK         0.0705 
     81 H81        32.4506   25.8328    2.7843 H         1 UNK         0.1334 
     82 H82        31.3883   23.9430    6.4801 H         1 UNK         0.1417 
     83 H83        29.5028   22.7298    2.8220 H         1 UNK         0.1562 
     84 H84        29.7899   22.1477    6.5248 H         1 UNK         0.0748 
     85 H85        29.4638   21.2912    5.0356 H         1 UNK         0.0748 
     86 H86        28.8261   24.4609    6.9950 H         1 UNK         0.0940 
     87 H87        27.0973   24.6403    7.0250 H         1 UNK         0.0940 
     88 H88        28.9503   25.6405    4.7932 H         1 UNK         0.0703 
     89 H89        26.1919   25.1209    4.6728 H         1 UNK         0.3081 
     90 H90        25.2939   25.2228    2.5087 H         1 UNK         0.0719 
     91 H91        24.1903   26.4545    4.4046 H         1 UNK         0.0809 
     92 H92        24.3345   27.9650    3.5188 H         1 UNK         0.0809 
     93 H93        23.2970   26.6737    2.9145 H         1 UNK         0.0809 
     94 H94        24.6805   27.5736    1.0986 H         1 UNK         0.2990 
     95 H95        24.8483   26.9035   -1.4199 H         1 UNK         0.0690 
     96 H96        25.0515   29.1258   -0.3682 H         1 UNK         0.0788 
     97 H97        25.7406   29.2409   -1.9700 H         1 UNK         0.0788 
     98 H98        26.8001   29.1287   -0.5691 H         1 UNK         0.0788 
     99 H99        27.6670   26.4280   -1.7413 H         1 UNK         0.2993 
    100 H100       27.4192   25.4641   -4.9518 H         1 UNK         0.0949 
    101 H101       29.0472   27.0946   -5.9196 H         1 UNK         0.0767 
    102 H102       27.4293   27.7750   -5.8869 H         1 UNK         0.0767 
    103 H103       28.6131   28.2805   -4.6883 H         1 UNK         0.0767 
    104 H104       29.6858   26.4883   -3.3902 H         1 UNK         0.3013 
    105 H105       28.1719   28.1166    4.5105 H         1 UNK         0.3121 
    106 H106       29.4269   29.6165    6.4975 H         1 UNK         0.0774 
    107 H107       27.4578   30.9887    7.3718 H         1 UNK         0.0815 
    108 H108       26.3591   29.7942    6.6951 H         1 UNK         0.0815 
    109 H109       27.4669   29.3553    7.9950 H         1 UNK         0.0815 
    110 H110       27.0328   29.4433    3.8940 H         1 UNK         0.2987 
    111 H111       27.4545   32.1713    2.9533 H         1 UNK         0.0949 
    112 H112       25.9273   29.7739    1.8106 H         1 UNK         0.0806 
    113 H113       25.2406   31.1269    2.7055 H         1 UNK         0.0806 
    114 H114       25.9212   31.3880    1.1074 H         1 UNK         0.0806 
    115 H115       28.6195   28.8982    2.1266 H         1 UNK         0.3010 
    116 H116       30.2495   29.9755   -0.1301 H         1 UNK         0.0829 
    117 H117       30.5712   27.5091   -0.6123 H         1 UNK         0.0813 
    118 H118       29.4411   27.1395    0.6899 H         1 UNK         0.0813 
    119 H119       28.9044   28.0361   -0.7309 H         1 UNK         0.0813 
    120 H120       32.4179   29.6054   -0.2255 H         1 UNK         0.3038 
    121 H121       34.5274   29.4286    0.3126 H         1 UNK         0.0769 
    122 H122       33.8871   27.4723    2.5630 H         1 UNK         0.0811 
    123 H123       35.3126   27.5133    1.5373 H         1 UNK         0.0811 
    124 H124       33.7795   26.9979    0.8665 H         1 UNK         0.0811 
    125 H125       36.0255   29.1447    2.5892 H         1 UNK         0.3204 
    126 H126       36.1043   31.8000    3.5594 H         1 UNK         0.0748 
    127 H127       38.0068   30.9394    4.9375 H         1 UNK         0.0771 
    128 H128       37.5614   29.2851    4.5437 H         1 UNK         0.0771 
    129 H129       38.1218   30.3805    3.2785 H         1 UNK         0.0771 
    130 H130       34.3757   29.0364    4.8400 H         1 UNK         0.2980 
    131 H131       34.1397   30.1037    7.5303 H         1 UNK         0.0545 
    132 H132       31.1254   31.7012    5.3485 H         1 UNK         0.3459 
    133 H133       32.5337   31.0023    4.5817 H         1 UNK         0.3459 
    134 H134       32.7497   28.2231    8.0429 H         1 UNK         0.0616 
    135 H135       34.1316   27.6586    7.1547 H         1 UNK         0.0616 
    136 H136       33.8495   26.1524    4.8531 H         1 UNK         0.0634 
    137 H137       33.3471   25.4249    6.3670 H         1 UNK         0.0634 
@<TRIPOS>BOND
     1    1    2 1    
     2    1   72 1    
     3    1   73 1    
     4    1   74 1    
     5    2    3 2    
     6    2    4 am   BACKBONE|DICT|INTERRES
     7    4    5 1    
     8    4   75 1    
     9    5    6 1    
    10    5   35 1    
    11    5   76 1    
    12    6    7 1    
    13    6   77 1    
    14    6   78 1    
    15    7    8 1    
    16    8    9 1    
    17    8   79 1    
    18    8   80 1    
    19    9   10 ar   
    20    9   14 ar   
    21   10   11 ar   
    22   10   81 1    
    23   11   12 ar   
    24   11   71 1    
    25   12   13 ar   
    26   12   82 1    
    27   13   14 ar   
    28   13   15 1    
    29   14   83 1    
    30   15   16 1    
    31   15   84 1    
    32   15   85 1    
    33   16   17 1    
    34   17   18 1    
    35   17   86 1    
    36   17   87 1    
    37   18   19 1    
    38   18   37 1    
    39   18   88 1    
    40   19   20 am   BACKBONE|DICT|INTERRES
    41   19   89 1    
    42   20   21 2    
    43   20   22 1    
    44   22   23 1    
    45   22   24 1    
    46   22   90 1    
    47   23   91 1    
    48   23   92 1    
    49   23   93 1    
    50   24   25 am   BACKBONE|DICT|INTERRES
    51   24   94 1    
    52   25   26 2    
    53   25   27 1    
    54   27   28 1    
    55   27   29 1    
    56   27   95 1    
    57   28   96 1    
    58   28   97 1    
    59   28   98 1    
    60   29   30 am   BACKBONE|DICT|INTERRES
    61   29   99 1    
    62   30   31 2    
    63   30   32 1    
    64   32   33 1    
    65   32   34 1    
    66   32  100 1    
    67   33  101 1    
    68   33  102 1    
    69   33  103 1    
    70   34   35 am   BACKBONE|DICT|INTERRES
    71   34  104 1    
    72   35   36 2    
    73   37   38 2    
    74   37   39 am   BACKBONE|DICT|INTERRES
    75   39   40 1    
    76   39  105 1    
    77   40   41 1    
    78   40   42 1    
    79   40  106 1    
    80   41  107 1    
    81   41  108 1    
    82   41  109 1    
    83   42   43 2    
    84   42   44 am   BACKBONE|DICT|INTERRES
    85   44   45 1    
    86   44  110 1    
    87   45   46 1    
    88   45   47 1    
    89   45  111 1    
    90   46  112 1    
    91   46  113 1    
    92   46  114 1    
    93   47   48 2    
    94   47   49 am   BACKBONE|DICT|INTERRES
    95   49   50 1    
    96   49  115 1    
    97   50   51 1    
    98   50   52 1    
    99   50  116 1    
   100   51  117 1    
   101   51  118 1    
   102   51  119 1    
   103   52   53 2    
   104   52   54 am   BACKBONE|DICT|INTERRES
   105   54   55 1    
   106   54  120 1    
   107   55   56 1    
   108   55   57 1    
   109   55  121 1    
   110   56  122 1    
   111   56  123 1    
   112   56  124 1    
   113   57   58 2    
   114   57   59 am   BACKBONE|DICT|INTERRES
   115   59   60 1    
   116   59  125 1    
   117   60   61 1    
   118   60   62 1    
   119   60  126 1    
   120   61  127 1    
   121   61  128 1    
   122   61  129 1    
   123   62   63 2    
   124   62   64 am   BACKBONE|DICT|INTERRES
   125   64   65 1    
   126   64  130 1    
   127   65   66 1    
   128   65   69 1    
   129   65  131 1    
   130   66   67 am   BACKBONE|DICT|INTERRES
   131   66   68 2    
   132   67  132 1    
   133   67  133 1    
   134   69   70 1    
   135   69  134 1    
   136   69  135 1    
   137   70   71 1    
   138   71  136 1    
   139   71  137 1    
@<TRIPOS>SUBSTRUCTURE
     1 UNK         1 GROUP             0       ****    0 ROOT    
