@<TRIPOS>MOLECULE
3R136
137   139    1
SMALL
USER_CHARGES


@<TRIPOS>ATOM
      1 CA         33.6721   23.8682   -4.8554 C.3       0 UNK        -0.1979 
      2 C          33.0842   24.5961   -3.6552 C.2       0 UNK         0.4864 
      3 O          33.4976   25.7180   -3.3580 O.2       0 UNK        -0.5359 
      4 N          32.1298   23.9640   -2.9598 N.am      1 UNK        -0.4318 
      5 CA         31.4060   24.5402   -1.8237 C.3       1 UNK         0.0824 
      6 C6         30.6954   23.4355   -1.0041 C.3       12 UNK        -0.0944 
      7 S7         30.1276   24.0276    0.6249 S.3       12 UNK        -0.2672 
      8 C8         31.2861   23.1873    1.7441 C.3       12 UNK         0.0333 
      9 C9         30.9399   23.4983    3.1900 C.ar      12 UNK        -0.0807 
     10 C10        31.7798   24.2958    3.9723 C.ar      12 UNK        -0.0894 
     11 C11        31.4401   24.5943    5.2952 C.ar      12 UNK        -0.0804 
     12 C12        30.2460   24.1003    5.8302 C.ar      12 UNK        -0.0824 
     13 C13        29.4005   23.2993    5.0562 C.ar      12 UNK        -0.0762 
     14 C14        29.7625   22.9894    3.7431 C.ar      12 UNK        -0.0782 
     15 C15        28.1004   22.7597    5.6361 C.3       12 UNK         0.0230 
     16 S16        26.6455   23.2610    4.6587 S.3       12 UNK        -0.2608 
     17 C17        26.6627   25.0764    4.8602 C.3       12 UNK        -0.0989 
     18 CA         26.9408   25.8538    3.5372 C.3       5 UNK         0.0716 
     19 N          26.0390   25.4634    2.4445 N.am      5 UNK        -0.4135 
     20 C          24.7083   25.6172    2.4129 C.2       4 UNK         0.5031 
     21 O          24.0641   26.2292    3.2675 O.2       4 UNK        -0.5229 
     22 CA         23.9742   24.9606    1.2265 C.3       4 UNK         0.0329 
     23 CB         22.4424   25.0943    1.3268 C.3       4 UNK        -0.2001 
     24 N          24.4097   25.5087   -0.0574 N.am      4 UNK        -0.4303 
     25 C          25.5335   25.1789   -0.7062 C.2       3 UNK         0.5044 
     26 O          26.3332   24.3384   -0.2893 O.2       3 UNK        -0.5152 
     27 CA         25.8199   25.9059   -2.0378 C.3       3 UNK         0.0319 
     28 CB         24.8231   27.0429   -2.3634 C.3       3 UNK        -0.2001 
     29 N          27.1924   26.4168   -2.1243 N.am      3 UNK        -0.4354 
     30 C          27.8169   27.2155   -1.2473 C.2       2 UNK         0.4964 
     31 O          27.3438   27.5589   -0.1615 O.2       2 UNK        -0.5047 
     32 CA         29.2164   27.6993   -1.6659 C.3       2 UNK         0.0288 
     33 CB         29.6581   28.9551   -0.8970 C.3       2 UNK        -0.2113 
     34 N          30.2038   26.6436   -1.4636 N.am      2 UNK        -0.4145 
     35 C          30.4087   25.6183   -2.2995 C.2       1 UNK         0.5006 
     36 O          29.8188   25.4851   -3.3768 O.2       1 UNK        -0.5103 
     37 C          26.9623   27.3846    3.7696 C.2       5 UNK         0.5055 
     38 O          26.9384   27.8231    4.9232 O.2       5 UNK        -0.5220 
     39 N          26.9816   28.1849    2.6915 N.am      6 UNK        -0.4450 
     40 CA         27.0505   29.6472    2.7816 C.3       6 UNK         0.0367 
     41 CB         26.6669   30.2713    1.4308 C.3       6 UNK        -0.1929 
     42 C          28.4469   30.1194    3.2199 C.2       6 UNK         0.5070 
     43 O          29.4398   29.4334    2.9673 O.2       6 UNK        -0.5237 
     44 N          28.5045   31.3123    3.8298 N.am      7 UNK        -0.4739 
     45 CA         29.7167   31.9171    4.4024 C.3       7 UNK         0.0276 
     46 CB         29.3543   33.2512    5.0730 C.3       7 UNK        -0.1927 
     47 C          30.8791   32.1128    3.4117 C.2       7 UNK         0.5013 
     48 O          32.0381   32.1033    3.8310 O.2       7 UNK        -0.5193 
     49 N          30.5550   32.2191    2.1147 N.am      8 UNK        -0.4253 
     50 CA         31.4957   32.2475    0.9908 C.3       8 UNK         0.0242 
     51 CB         30.7252   32.5510   -0.3042 C.3       8 UNK        -0.2000 
     52 C          32.3595   30.9762    0.8430 C.2       8 UNK         0.4948 
     53 O          33.3710   31.0289    0.1435 O.2       8 UNK        -0.5275 
     54 N          32.0019   29.8824    1.5373 N.am      9 UNK        -0.4246 
     55 CA         32.8387   28.6900    1.7192 C.3       9 UNK         0.0261 
     56 CB         31.9536   27.5176    2.1773 C.3       9 UNK        -0.1959 
     57 C          34.0214   28.9031    2.6948 C.2       9 UNK         0.5033 
     58 O          34.7623   27.9518    2.9419 O.2       9 UNK        -0.5390 
     59 N          34.1707   30.1242    3.2345 N.am      10 UNK        -0.4215 
     60 CA         35.2173   30.6420    4.1276 C.3       10 UNK         0.0240 
     61 CB         36.6416   30.2687    3.6657 C.3       10 UNK        -0.1982 
     62 C          34.9873   30.3395    5.6165 C.2       10 UNK         0.4970 
     63 O          35.6704   30.9334    6.4519 O.2       10 UNK        -0.4916 
     64 N          34.0170   29.4758    5.9347 N.am      11 UNK        -0.4279 
     65 CA         33.5322   29.2218    7.2993 C.3       11 UNK         0.1003 
     66 C          32.4841   30.2532    7.8143 C.2       11 UNK         0.5709 
     67 N          32.0940   31.2595    7.0397 N.am      11 UNK        -0.7358 
     68 O          32.0351   30.1566    8.9541 O.2       11 UNK        -0.4999 
     69 C69        33.0821   27.7496    7.4880 C.3       12 UNK        -0.0954 
     70 S70        31.8587   27.1588    6.2677 S.3       12 UNK        -0.2268 
     71 C71        32.3786   25.4201    6.1591 C.3       12 UNK         0.0203 
     72 H72        33.2263   22.8834   -4.9939 H         1 UNK         0.0888 
     73 H73        33.5045   24.4468   -5.7634 H         1 UNK         0.0888 
     74 H74        34.7464   23.7387   -4.7266 H         1 UNK         0.0888 
     75 H75        31.8076   23.0592   -3.2722 H         1 UNK         0.3017 
     76 H76        32.1479   25.0193   -1.1801 H         1 UNK         0.0873 
     77 H77        31.3700   22.5912   -0.8522 H         1 UNK         0.0745 
     78 H78        29.8372   23.0350   -1.5479 H         1 UNK         0.0745 
     79 H79        31.2374   22.1093    1.5831 H         1 UNK         0.0705 
     80 H80        32.3058   23.4975    1.5098 H         1 UNK         0.0705 
     81 H81        32.7010   24.6797    3.5564 H         1 UNK         0.1334 
     82 H82        29.9814   24.3373    6.8519 H         1 UNK         0.1417 
     83 H83        29.1102   22.3736    3.1384 H         1 UNK         0.1562 
     84 H84        27.9651   23.0848    6.6689 H         1 UNK         0.0748 
     85 H85        28.1501   21.6703    5.6606 H         1 UNK         0.0748 
     86 H86        27.4057   25.3408    5.6150 H         1 UNK         0.0940 
     87 H87        25.6997   25.3719    5.2806 H         1 UNK         0.0940 
     88 H88        27.9466   25.5897    3.2052 H         1 UNK         0.0703 
     89 H89        26.4686   24.9810    1.6614 H         1 UNK         0.3081 
     90 H90        24.2126   23.8949    1.2536 H         1 UNK         0.0719 
     91 H91        22.0731   24.6622    2.2579 H         1 UNK         0.0809 
     92 H92        22.1242   26.1374    1.3023 H         1 UNK         0.0809 
     93 H93        21.9439   24.5716    0.5103 H         1 UNK         0.0809 
     94 H94        23.8328   26.2374   -0.4519 H         1 UNK         0.2990 
     95 H95        25.7259   25.1491   -2.8177 H         1 UNK         0.0690 
     96 H96        25.0598   27.5052   -3.3219 H         1 UNK         0.0788 
     97 H97        24.8406   27.8307   -1.6086 H         1 UNK         0.0788 
     98 H98        23.8007   26.6707   -2.4413 H         1 UNK         0.0788 
     99 H99        27.7250   26.1130   -2.9310 H         1 UNK         0.2993 
    100 H100       29.1816   27.9596   -2.7264 H         1 UNK         0.0949 
    101 H101       30.6534   29.2786   -1.2019 H         1 UNK         0.0767 
    102 H102       28.9734   29.7787   -1.0978 H         1 UNK         0.0767 
    103 H103       29.6701   28.7934    0.1813 H         1 UNK         0.0767 
    104 H104       30.6740   26.6374   -0.5708 H         1 UNK         0.3013 
    105 H105       27.0514   27.7848    1.7589 H         1 UNK         0.3121 
    106 H106       26.3225   29.9750    3.5271 H         1 UNK         0.0774 
    107 H107       27.4122   30.0630    0.6650 H         1 UNK         0.0815 
    108 H108       25.7078   29.8942    1.0752 H         1 UNK         0.0815 
    109 H109       26.5799   31.3554    1.5103 H         1 UNK         0.0815 
    110 H110       27.6423   31.8185    3.9763 H         1 UNK         0.2987 
    111 H111       30.0728   31.2305    5.1723 H         1 UNK         0.0949 
    112 H112       28.6203   33.1112    5.8667 H         1 UNK         0.0806 
    113 H113       30.2331   33.7124    5.5265 H         1 UNK         0.0806 
    114 H114       28.9453   33.9651    4.3569 H         1 UNK         0.0806 
    115 H115       29.5731   32.2035    1.8813 H         1 UNK         0.3010 
    116 H116       32.1891   33.0717    1.1708 H         1 UNK         0.0829 
    117 H117       29.9422   31.8177   -0.4907 H         1 UNK         0.0813 
    118 H118       31.3902   32.5479   -1.1692 H         1 UNK         0.0813 
    119 H119       30.2572   33.5347   -0.2633 H         1 UNK         0.0813 
    120 H120       31.1315   29.8954    2.0644 H         1 UNK         0.3038 
    121 H121       33.2678   28.4282    0.7499 H         1 UNK         0.0769 
    122 H122       31.1033   27.3668    1.5136 H         1 UNK         0.0811 
    123 H123       31.5626   27.6753    3.1833 H         1 UNK         0.0811 
    124 H124       32.5202   26.5869    2.1887 H         1 UNK         0.0811 
    125 H125       33.4398   30.8006    3.0373 H         1 UNK         0.3204 
    126 H126       35.1342   31.7266    4.0417 H         1 UNK         0.0748 
    127 H127       36.8546   29.2095    3.8110 H         1 UNK         0.0771 
    128 H128       36.7931   30.5033    2.6120 H         1 UNK         0.0771 
    129 H129       37.3901   30.8245    4.2318 H         1 UNK         0.0771 
    130 H130       33.5048   29.0211    5.1937 H         1 UNK         0.2980 
    131 H131       34.3801   29.3542    7.9738 H         1 UNK         0.0545 
    132 H132       32.4587   31.3709    6.1059 H         1 UNK         0.3459 
    133 H133       31.4345   31.9255    7.4078 H         1 UNK         0.3459 
    134 H134       32.6815   27.5850    8.4898 H         1 UNK         0.0616 
    135 H135       33.9665   27.1138    7.4243 H         1 UNK         0.0616 
    136 H136       33.3950   25.3751    5.7644 H         1 UNK         0.0634 
    137 H137       32.4181   24.9931    7.1625 H         1 UNK         0.0634 
@<TRIPOS>BOND
     1    1    2 1    
     2    1   72 1    
     3    1   73 1    
     4    1   74 1    
     5    2    3 2    
     6    2    4 am   BACKBONE|DICT|INTERRES
     7    4    5 1    
     8    4   75 1    
     9    5    6 1    
    10    5   35 1    
    11    5   76 1    
    12    6    7 1    
    13    6   77 1    
    14    6   78 1    
    15    7    8 1    
    16    8    9 1    
    17    8   79 1    
    18    8   80 1    
    19    9   10 ar   
    20    9   14 ar   
    21   10   11 ar   
    22   10   81 1    
    23   11   12 ar   
    24   11   71 1    
    25   12   13 ar   
    26   12   82 1    
    27   13   14 ar   
    28   13   15 1    
    29   14   83 1    
    30   15   16 1    
    31   15   84 1    
    32   15   85 1    
    33   16   17 1    
    34   17   18 1    
    35   17   86 1    
    36   17   87 1    
    37   18   19 1    
    38   18   37 1    
    39   18   88 1    
    40   19   20 am   BACKBONE|DICT|INTERRES
    41   19   89 1    
    42   20   21 2    
    43   20   22 1    
    44   22   23 1    
    45   22   24 1    
    46   22   90 1    
    47   23   91 1    
    48   23   92 1    
    49   23   93 1    
    50   24   25 am   BACKBONE|DICT|INTERRES
    51   24   94 1    
    52   25   26 2    
    53   25   27 1    
    54   27   28 1    
    55   27   29 1    
    56   27   95 1    
    57   28   96 1    
    58   28   97 1    
    59   28   98 1    
    60   29   30 am   BACKBONE|DICT|INTERRES
    61   29   99 1    
    62   30   31 2    
    63   30   32 1    
    64   32   33 1    
    65   32   34 1    
    66   32  100 1    
    67   33  101 1    
    68   33  102 1    
    69   33  103 1    
    70   34   35 am   BACKBONE|DICT|INTERRES
    71   34  104 1    
    72   35   36 2    
    73   37   38 2    
    74   37   39 am   BACKBONE|DICT|INTERRES
    75   39   40 1    
    76   39  105 1    
    77   40   41 1    
    78   40   42 1    
    79   40  106 1    
    80   41  107 1    
    81   41  108 1    
    82   41  109 1    
    83   42   43 2    
    84   42   44 am   BACKBONE|DICT|INTERRES
    85   44   45 1    
    86   44  110 1    
    87   45   46 1    
    88   45   47 1    
    89   45  111 1    
    90   46  112 1    
    91   46  113 1    
    92   46  114 1    
    93   47   48 2    
    94   47   49 am   BACKBONE|DICT|INTERRES
    95   49   50 1    
    96   49  115 1    
    97   50   51 1    
    98   50   52 1    
    99   50  116 1    
   100   51  117 1    
   101   51  118 1    
   102   51  119 1    
   103   52   53 2    
   104   52   54 am   BACKBONE|DICT|INTERRES
   105   54   55 1    
   106   54  120 1    
   107   55   56 1    
   108   55   57 1    
   109   55  121 1    
   110   56  122 1    
   111   56  123 1    
   112   56  124 1    
   113   57   58 2    
   114   57   59 am   BACKBONE|DICT|INTERRES
   115   59   60 1    
   116   59  125 1    
   117   60   61 1    
   118   60   62 1    
   119   60  126 1    
   120   61  127 1    
   121   61  128 1    
   122   61  129 1    
   123   62   63 2    
   124   62   64 am   BACKBONE|DICT|INTERRES
   125   64   65 1    
   126   64  130 1    
   127   65   66 1    
   128   65   69 1    
   129   65  131 1    
   130   66   67 am   BACKBONE|DICT|INTERRES
   131   66   68 2    
   132   67  132 1    
   133   67  133 1    
   134   69   70 1    
   135   69  134 1    
   136   69  135 1    
   137   70   71 1    
   138   71  136 1    
   139   71  137 1    
@<TRIPOS>SUBSTRUCTURE
     1 UNK         1 GROUP             0       ****    0 ROOT    
