@<TRIPOS>MOLECULE
3R136
137   139    1
SMALL
USER_CHARGES


@<TRIPOS>ATOM
      1 CA         27.2511   20.0139    4.7410 C.3       0 UNK        -0.1979 
      2 C          26.9449   20.8465    3.5045 C.2       0 UNK         0.4864 
      3 O          25.8206   20.8042    3.0017 O.2       0 UNK        -0.5359 
      4 N          27.9382   21.5938    3.0072 N.am      1 UNK        -0.4318 
      5 CA         27.8096   22.4985    1.8603 C.3       1 UNK         0.0824 
      6 C6         29.1919   22.8963    1.2856 C.3       12 UNK        -0.0944 
      7 S7         30.0652   21.4666    0.5619 S.3       12 UNK        -0.2672 
      8 C8         31.6249   21.4372    1.5146 C.3       12 UNK         0.0333 
      9 C9         32.4981   22.6807    1.3414 C.ar      12 UNK        -0.0807 
     10 C10        33.2559   23.1416    2.4231 C.ar      12 UNK        -0.0894 
     11 C11        34.0552   24.2826    2.3015 C.ar      12 UNK        -0.0804 
     12 C12        34.1023   24.9650    1.0830 C.ar      12 UNK        -0.0824 
     13 C13        33.3411   24.5241   -0.0034 C.ar      12 UNK        -0.0762 
     14 C14        32.5613   23.3710    0.1247 C.ar      12 UNK        -0.0782 
     15 C15        33.2912   25.3362   -1.2915 C.3       12 UNK         0.0230 
     16 S16        32.5232   26.9812   -1.0627 S.3       12 UNK        -0.2608 
     17 C17        31.1233   26.6296    0.0565 C.3       12 UNK        -0.0989 
     18 CA         30.4670   27.9262    0.5792 C.3       5 UNK         0.0716 
     19 N          29.5875   28.5286   -0.4218 N.am      5 UNK        -0.4135 
     20 C          28.8623   29.6427   -0.2698 C.2       4 UNK         0.5031 
     21 O          28.9764   30.4087    0.6885 O.2       4 UNK        -0.5229 
     22 CA         27.7880   29.9310   -1.3330 C.3       4 UNK         0.0329 
     23 CB         28.3980   30.5880   -2.5858 C.3       4 UNK        -0.2001 
     24 N          26.9607   28.7579   -1.6616 N.am      4 UNK        -0.4303 
     25 C          27.3160   27.6251   -2.2847 C.2       3 UNK         0.5044 
     26 O          28.4393   27.4147   -2.7461 O.2       3 UNK        -0.5152 
     27 CA         26.2608   26.5079   -2.3050 C.3       3 UNK         0.0319 
     28 CB         26.5673   25.4292   -3.3608 C.3       3 UNK        -0.2001 
     29 N          26.1821   25.8727   -0.9877 N.am      3 UNK        -0.4354 
     30 C          25.4987   26.3588    0.0602 C.2       2 UNK         0.4964 
     31 O          24.8489   27.4041    0.0046 O.2       2 UNK        -0.5047 
     32 CA         25.5274   25.5637    1.3797 C.3       2 UNK         0.0288 
     33 CB         24.1063   25.2878    1.9072 C.3       2 UNK        -0.2113 
     34 N          26.2652   24.3013    1.2629 N.am      2 UNK        -0.4145 
     35 C          27.0050   23.7588    2.2386 C.2       1 UNK         0.5006 
     36 O          27.0915   24.2216    3.3788 O.2       1 UNK        -0.5103 
     37 C          29.6890   27.6383    1.8758 C.2       5 UNK         0.5055 
     38 O          28.5914   27.0799    1.8127 O.2       5 UNK        -0.5220 
     39 N          30.2650   28.0547    3.0101 N.am      6 UNK        -0.4450 
     40 CA         29.7573   27.9946    4.3862 C.3       6 UNK         0.0367 
     41 CB         29.4778   26.5468    4.8278 C.3       6 UNK        -0.1929 
     42 C          28.5501   28.9123    4.6566 C.2       6 UNK         0.5070 
     43 O          28.4847   29.5077    5.7318 O.2       6 UNK        -0.5237 
     44 N          27.6312   29.0294    3.6899 N.am      7 UNK        -0.4739 
     45 CA         26.4520   29.8959    3.7348 C.3       7 UNK         0.0276 
     46 CB         25.5204   29.5457    2.5640 C.3       7 UNK        -0.1927 
     47 C          26.7991   31.3943    3.7213 C.2       7 UNK         0.5013 
     48 O          26.1533   32.1661    4.4318 O.2       7 UNK        -0.5193 
     49 N          27.8050   31.7726    2.9235 N.am      8 UNK        -0.4253 
     50 CA         28.3158   33.1379    2.8049 C.3       8 UNK         0.0242 
     51 CB         27.8211   33.7677    1.4908 C.3       8 UNK        -0.2000 
     52 C          29.8465   33.1467    2.8851 C.2       8 UNK         0.4948 
     53 O          30.4071   33.8925    3.6894 O.2       8 UNK        -0.5275 
     54 N          30.4998   32.3103    2.0685 N.am      9 UNK        -0.4246 
     55 CA         31.9480   32.1233    2.0541 C.3       9 UNK         0.0261 
     56 CB         32.3880   31.6969    0.6419 C.3       9 UNK        -0.1959 
     57 C          32.3278   31.0889    3.1218 C.2       9 UNK         0.5033 
     58 O          32.3334   29.8897    2.8365 O.2       9 UNK        -0.5390 
     59 N          32.5755   31.5662    4.3475 N.am      10 UNK        -0.4215 
     60 CA         32.9373   30.7507    5.5090 C.3       10 UNK         0.0240 
     61 CB         33.0142   31.6499    6.7534 C.3       10 UNK        -0.1982 
     62 C          34.2611   29.9922    5.3073 C.2       10 UNK         0.4970 
     63 O          35.2109   30.5549    4.7573 O.2       10 UNK        -0.4916 
     64 N          34.2973   28.7420    5.7808 N.am      11 UNK        -0.4279 
     65 CA         35.4545   27.8371    5.6798 C.3       11 UNK         0.1003 
     66 C          36.6301   28.1723    6.6447 C.2       11 UNK         0.5709 
     67 N          36.4648   29.0600    7.6186 N.am      11 UNK        -0.7358 
     68 O          37.7181   27.6197    6.5001 O.2       11 UNK        -0.4999 
     69 C69        35.0242   26.3530    5.8226 C.3       12 UNK        -0.0954 
     70 S70        33.8117   25.8480    4.5555 S.3       12 UNK        -0.2268 
     71 C71        34.8459   24.7930    3.4949 C.3       12 UNK         0.0203 
     72 H72        27.0812   18.9577    4.5338 H         1 UNK         0.0888 
     73 H73        28.2840   20.1332    5.0675 H         1 UNK         0.0888 
     74 H74        26.5995   20.3098    5.5627 H         1 UNK         0.0888 
     75 H75        28.8325   21.6067    3.4741 H         1 UNK         0.3017 
     76 H76        27.2547   21.9693    1.0819 H         1 UNK         0.0873 
     77 H77        29.0847   23.6397    0.4932 H         1 UNK         0.0745 
     78 H78        29.8081   23.3666    2.0549 H         1 UNK         0.0745 
     79 H79        31.3799   21.2886    2.5674 H         1 UNK         0.0705 
     80 H80        32.2027   20.5652    1.2061 H         1 UNK         0.0705 
     81 H81        33.2153   22.6204    3.3702 H         1 UNK         0.1334 
     82 H82        34.6950   25.8652    0.9910 H         1 UNK         0.1417 
     83 H83        31.9752   23.0311   -0.7179 H         1 UNK         0.1562 
     84 H84        32.7364   24.8003   -2.0633 H         1 UNK         0.0748 
     85 H85        34.3031   25.4662   -1.6776 H         1 UNK         0.0748 
     86 H86        31.4986   26.0506    0.9014 H         1 UNK         0.0940 
     87 H87        30.3973   25.9902   -0.4498 H         1 UNK         0.0940 
     88 H88        31.2500   28.6496    0.8058 H         1 UNK         0.0703 
     89 H89        29.4055   27.9756   -1.2550 H         1 UNK         0.3081 
     90 H90        27.1021   30.6549   -0.8894 H         1 UNK         0.0719 
     91 H91        29.1266   29.9429   -3.0775 H         1 UNK         0.0809 
     92 H92        27.6282   30.8410   -3.3147 H         1 UNK         0.0809 
     93 H93        28.9133   31.5132   -2.3240 H         1 UNK         0.0809 
     94 H94        26.0371   28.7581   -1.2421 H         1 UNK         0.2990 
     95 H95        25.2960   26.9553   -2.5550 H         1 UNK         0.0690 
     96 H96        25.7775   24.6788   -3.4006 H         1 UNK         0.0788 
     97 H97        27.5080   24.9150   -3.1589 H         1 UNK         0.0788 
     98 H98        26.6443   25.8700   -4.3556 H         1 UNK         0.0788 
     99 H99        26.7688   25.0645   -0.8550 H         1 UNK         0.2993 
    100 H100       26.0408   26.2073    2.0976 H         1 UNK         0.0949 
    101 H101       24.1340   24.7931    2.8783 H         1 UNK         0.0767 
    102 H102       23.5458   26.2148    2.0356 H         1 UNK         0.0767 
    103 H103       23.5409   24.6538    1.2234 H         1 UNK         0.0767 
    104 H104       26.1922   23.8186    0.3790 H         1 UNK         0.3013 
    105 H105       31.1323   28.5878    2.9156 H         1 UNK         0.3121 
    106 H106       30.5728   28.3666    5.0066 H         1 UNK         0.0774 
    107 H107       29.2238   26.5062    5.8876 H         1 UNK         0.0815 
    108 H108       28.6428   26.1118    4.2802 H         1 UNK         0.0815 
    109 H109       30.3489   25.9093    4.6758 H         1 UNK         0.0815 
    110 H110       27.7632   28.4582    2.8598 H         1 UNK         0.2987 
    111 H111       25.9220   29.6912    4.6676 H         1 UNK         0.0949 
    112 H112       26.0188   29.6590    1.6004 H         1 UNK         0.0806 
    113 H113       25.1627   28.5189    2.6371 H         1 UNK         0.0806 
    114 H114       24.6412   30.1915    2.5552 H         1 UNK         0.0806 
    115 H115       28.2587   31.0699    2.3465 H         1 UNK         0.3010 
    116 H116       27.9513   33.7480    3.6343 H         1 UNK         0.0829 
    117 H117       26.7336   33.8405    1.4753 H         1 UNK         0.0813 
    118 H118       28.2157   34.7772    1.3681 H         1 UNK         0.0813 
    119 H119       28.1278   33.1868    0.6199 H         1 UNK         0.0813 
    120 H120       29.9620   31.6872    1.4684 H         1 UNK         0.3038 
    121 H121       32.4485   33.0662    2.2863 H         1 UNK         0.0769 
    122 H122       31.8681   30.8020    0.3022 H         1 UNK         0.0811 
    123 H123       33.4574   31.4840    0.6141 H         1 UNK         0.0811 
    124 H124       32.1947   32.4861   -0.0847 H         1 UNK         0.0811 
    125 H125       32.5117   32.5643    4.4940 H         1 UNK         0.3204 
    126 H126       32.1359   30.0256    5.6596 H         1 UNK         0.0748 
    127 H127       32.0664   32.1573    6.9359 H         1 UNK         0.0771 
    128 H128       33.2432   31.0661    7.6459 H         1 UNK         0.0771 
    129 H129       33.7894   32.4112    6.6536 H         1 UNK         0.0771 
    130 H130       33.4796   28.3565    6.2285 H         1 UNK         0.2980 
    131 H131       35.8656   27.9553    4.6751 H         1 UNK         0.0545 
    132 H132       37.2371   29.2690    8.2315 H         1 UNK         0.3459 
    133 H133       35.5793   29.5216    7.7458 H         1 UNK         0.3459 
    134 H134       34.5805   26.1802    6.8046 H         1 UNK         0.0616 
    135 H135       35.8906   25.6913    5.7646 H         1 UNK         0.0616 
    136 H136       35.7162   25.3594    3.1596 H         1 UNK         0.0634 
    137 H137       35.2255   23.9520    4.0773 H         1 UNK         0.0634 
@<TRIPOS>BOND
     1    1    2 1    
     2    1   72 1    
     3    1   73 1    
     4    1   74 1    
     5    2    3 2    
     6    2    4 am   BACKBONE|DICT|INTERRES
     7    4    5 1    
     8    4   75 1    
     9    5    6 1    
    10    5   35 1    
    11    5   76 1    
    12    6    7 1    
    13    6   77 1    
    14    6   78 1    
    15    7    8 1    
    16    8    9 1    
    17    8   79 1    
    18    8   80 1    
    19    9   10 ar   
    20    9   14 ar   
    21   10   11 ar   
    22   10   81 1    
    23   11   12 ar   
    24   11   71 1    
    25   12   13 ar   
    26   12   82 1    
    27   13   14 ar   
    28   13   15 1    
    29   14   83 1    
    30   15   16 1    
    31   15   84 1    
    32   15   85 1    
    33   16   17 1    
    34   17   18 1    
    35   17   86 1    
    36   17   87 1    
    37   18   19 1    
    38   18   37 1    
    39   18   88 1    
    40   19   20 am   BACKBONE|DICT|INTERRES
    41   19   89 1    
    42   20   21 2    
    43   20   22 1    
    44   22   23 1    
    45   22   24 1    
    46   22   90 1    
    47   23   91 1    
    48   23   92 1    
    49   23   93 1    
    50   24   25 am   BACKBONE|DICT|INTERRES
    51   24   94 1    
    52   25   26 2    
    53   25   27 1    
    54   27   28 1    
    55   27   29 1    
    56   27   95 1    
    57   28   96 1    
    58   28   97 1    
    59   28   98 1    
    60   29   30 am   BACKBONE|DICT|INTERRES
    61   29   99 1    
    62   30   31 2    
    63   30   32 1    
    64   32   33 1    
    65   32   34 1    
    66   32  100 1    
    67   33  101 1    
    68   33  102 1    
    69   33  103 1    
    70   34   35 am   BACKBONE|DICT|INTERRES
    71   34  104 1    
    72   35   36 2    
    73   37   38 2    
    74   37   39 am   BACKBONE|DICT|INTERRES
    75   39   40 1    
    76   39  105 1    
    77   40   41 1    
    78   40   42 1    
    79   40  106 1    
    80   41  107 1    
    81   41  108 1    
    82   41  109 1    
    83   42   43 2    
    84   42   44 am   BACKBONE|DICT|INTERRES
    85   44   45 1    
    86   44  110 1    
    87   45   46 1    
    88   45   47 1    
    89   45  111 1    
    90   46  112 1    
    91   46  113 1    
    92   46  114 1    
    93   47   48 2    
    94   47   49 am   BACKBONE|DICT|INTERRES
    95   49   50 1    
    96   49  115 1    
    97   50   51 1    
    98   50   52 1    
    99   50  116 1    
   100   51  117 1    
   101   51  118 1    
   102   51  119 1    
   103   52   53 2    
   104   52   54 am   BACKBONE|DICT|INTERRES
   105   54   55 1    
   106   54  120 1    
   107   55   56 1    
   108   55   57 1    
   109   55  121 1    
   110   56  122 1    
   111   56  123 1    
   112   56  124 1    
   113   57   58 2    
   114   57   59 am   BACKBONE|DICT|INTERRES
   115   59   60 1    
   116   59  125 1    
   117   60   61 1    
   118   60   62 1    
   119   60  126 1    
   120   61  127 1    
   121   61  128 1    
   122   61  129 1    
   123   62   63 2    
   124   62   64 am   BACKBONE|DICT|INTERRES
   125   64   65 1    
   126   64  130 1    
   127   65   66 1    
   128   65   69 1    
   129   65  131 1    
   130   66   67 am   BACKBONE|DICT|INTERRES
   131   66   68 2    
   132   67  132 1    
   133   67  133 1    
   134   69   70 1    
   135   69  134 1    
   136   69  135 1    
   137   70   71 1    
   138   71  136 1    
   139   71  137 1    
@<TRIPOS>SUBSTRUCTURE
     1 UNK         1 GROUP             0       ****    0 ROOT    
