@<TRIPOS>MOLECULE
3R136
137   139    1
SMALL
USER_CHARGES


@<TRIPOS>ATOM
      1 CA         29.3959   20.6264    1.7845 C.3       0 UNK        -0.1979 
      2 C          29.4959   21.6578    0.6708 C.2       0 UNK         0.4864 
      3 O          28.6445   22.5431    0.5936 O.2       0 UNK        -0.5359 
      4 N          30.5320   21.5442   -0.1757 N.am      1 UNK        -0.4318 
      5 CA         30.8551   22.3948   -1.3324 C.3       1 UNK         0.0824 
      6 C6         31.6978   23.6608   -0.9758 C.3       12 UNK        -0.0944 
      7 S7         30.9074   24.9010    0.1127 S.3       12 UNK        -0.2672 
      8 C8         31.6801   24.4812    1.7037 C.3       12 UNK         0.0333 
      9 C9         31.0082   25.2048    2.8587 C.ar      12 UNK        -0.0807 
     10 C10        31.5608   26.3817    3.3690 C.ar      12 UNK        -0.0894 
     11 C11        30.9653   27.0350    4.4520 C.ar      12 UNK        -0.0804 
     12 C12        29.8167   26.4893    5.0368 C.ar      12 UNK        -0.0824 
     13 C13        29.2435   25.3214    4.5223 C.ar      12 UNK        -0.0762 
     14 C14        29.8433   24.6854    3.4310 C.ar      12 UNK        -0.0782 
     15 C15        27.9834   24.7367    5.1466 C.3       12 UNK         0.0230 
     16 S16        26.4800   25.2188    4.2349 S.3       12 UNK        -0.2608 
     17 C17        26.2918   26.9710    4.7131 C.3       12 UNK        -0.0989 
     18 CA         26.9086   27.9235    3.6631 C.3       5 UNK         0.0716 
     19 N          26.2632   27.8099    2.3545 N.am      5 UNK        -0.4135 
     20 C          26.7010   28.4008    1.2366 C.2       4 UNK         0.5031 
     21 O          27.6783   29.1501    1.2001 O.2       4 UNK        -0.5229 
     22 CA         25.9557   28.0427   -0.0593 C.3       4 UNK         0.0329 
     23 CB         26.4634   28.8442   -1.2732 C.3       4 UNK        -0.2001 
     24 N          26.1089   26.6164   -0.3408 N.am      4 UNK        -0.4303 
     25 C          25.3746   25.6271    0.1853 C.2       3 UNK         0.5044 
     26 O          24.4321   25.8286    0.9534 O.2       3 UNK        -0.5152 
     27 CA         25.7820   24.1774   -0.1521 C.3       3 UNK         0.0319 
     28 CB         24.5685   23.2985   -0.5206 C.3       3 UNK        -0.2001 
     29 N          26.8570   24.0646   -1.1511 N.am      3 UNK        -0.4354 
     30 C          26.8093   24.3843   -2.4560 C.2       2 UNK         0.4964 
     31 O          25.7874   24.7704   -3.0237 O.2       2 UNK        -0.5047 
     32 CA         28.1212   24.3307   -3.2649 C.3       2 UNK         0.0288 
     33 CB         28.4410   25.7110   -3.8681 C.3       2 UNK        -0.2113 
     34 N          29.2738   23.9012   -2.4721 N.am      2 UNK        -0.4145 
     35 C          29.6401   22.6325   -2.2601 C.2       1 UNK         0.5006 
     36 O          29.0653   21.6633   -2.7617 O.2       1 UNK        -0.5103 
     37 C          26.9485   29.3788    4.1671 C.2       5 UNK         0.5055 
     38 O          26.0357   30.1598    3.8854 O.2       5 UNK        -0.5220 
     39 N          28.0420   29.7145    4.8650 N.am      6 UNK        -0.4450 
     40 CA         28.4947   31.0501    5.2768 C.3       6 UNK         0.0367 
     41 CB         27.4513   31.7973    6.1308 C.3       6 UNK        -0.1929 
     42 C          28.9810   31.9010    4.0902 C.2       6 UNK         0.5070 
     43 O          30.1080   32.3932    4.1316 O.2       6 UNK        -0.5237 
     44 N          28.1576   32.0201    3.0393 N.am      7 UNK        -0.4739 
     45 CA         28.4436   32.7603    1.8039 C.3       7 UNK         0.0276 
     46 CB         27.1999   32.7443    0.9011 C.3       7 UNK        -0.1927 
     47 C          29.6773   32.2451    1.0400 C.2       7 UNK         0.5013 
     48 O          30.4120   33.0506    0.4677 O.2       7 UNK        -0.5193 
     49 N          29.9015   30.9241    1.0771 N.am      8 UNK        -0.4253 
     50 CA         31.0747   30.2413    0.5254 C.3       8 UNK         0.0242 
     51 CB         30.8332   28.7225    0.5603 C.3       8 UNK        -0.2000 
     52 C          32.4056   30.5874    1.2212 C.2       8 UNK         0.4948 
     53 O          33.4565   30.3126    0.6416 O.2       8 UNK        -0.5275 
     54 N          32.3575   31.1522    2.4397 N.am      9 UNK        -0.4246 
     55 CA         33.4603   31.6637    3.2734 C.3       9 UNK         0.0261 
     56 CB         34.1584   32.8505    2.5828 C.3       9 UNK        -0.1959 
     57 C          34.5016   30.6336    3.7575 C.2       9 UNK         0.5033 
     58 O          35.0616   30.8194    4.8401 O.2       9 UNK        -0.5390 
     59 N          34.7413   29.5684    2.9836 N.am      10 UNK        -0.4215 
     60 CA         35.6969   28.4793    3.2186 C.3       10 UNK         0.0240 
     61 CB         35.8866   27.7100    1.8971 C.3       10 UNK        -0.1982 
     62 C          35.3245   27.5465    4.3934 C.2       10 UNK         0.4970 
     63 O          35.3162   26.3248    4.2336 O.2       10 UNK        -0.4916 
     64 N          35.0284   28.1394    5.5509 N.am      11 UNK        -0.4279 
     65 CA         34.6841   27.4688    6.8099 C.3       11 UNK         0.1003 
     66 C          35.0840   28.2775    8.0779 C.2       11 UNK         0.5709 
     67 N          35.6772   29.4620    7.9626 N.am      11 UNK        -0.7358 
     68 O          34.8800   27.8084    9.1953 O.2       11 UNK        -0.4999 
     69 C69        33.2146   26.9636    6.8312 C.3       12 UNK        -0.0954 
     70 S70        31.9601   28.2917    6.7467 S.3       12 UNK        -0.2268 
     71 C71        31.5658   28.3357    4.9697 C.3       12 UNK         0.0203 
     72 H72        30.2063   19.8988    1.7431 H         1 UNK         0.0888 
     73 H73        29.4319   21.1197    2.7555 H         1 UNK         0.0888 
     74 H74        28.4515   20.0877    1.7109 H         1 UNK         0.0888 
     75 H75        31.1628   20.7656   -0.0470 H         1 UNK         0.3017 
     76 H76        31.5157   21.7730   -1.9391 H         1 UNK         0.0873 
     77 H77        32.6329   23.3420   -0.5126 H         1 UNK         0.0745 
     78 H78        32.0072   24.1698   -1.8906 H         1 UNK         0.0745 
     79 H79        32.7420   24.7298    1.6639 H         1 UNK         0.0705 
     80 H80        31.6236   23.4047    1.8685 H         1 UNK         0.0705 
     81 H81        32.4572   26.7876    2.9199 H         1 UNK         0.1334 
     82 H82        29.3653   26.9763    5.8899 H         1 UNK         0.1417 
     83 H83        29.4027   23.7846    3.0253 H         1 UNK         0.1562 
     84 H84        27.8945   25.0334    6.1928 H         1 UNK         0.0748 
     85 H85        28.0537   23.6478    5.1493 H         1 UNK         0.0748 
     86 H86        26.7437   27.1201    5.6956 H         1 UNK         0.0940 
     87 H87        25.2282   27.1826    4.8390 H         1 UNK         0.0940 
     88 H88        27.9424   27.6216    3.4925 H         1 UNK         0.0703 
     89 H89        25.4733   27.1797    2.2870 H         1 UNK         0.3081 
     90 H90        24.8990   28.2772    0.0850 H         1 UNK         0.0719 
     91 H91        27.5215   28.6620   -1.4666 H         1 UNK         0.0809 
     92 H92        25.9089   28.5892   -2.1765 H         1 UNK         0.0809 
     93 H93        26.3423   29.9158   -1.1105 H         1 UNK         0.0809 
     94 H94        26.8867   26.3564   -0.9279 H         1 UNK         0.2990 
     95 H95        26.2024   23.7750    0.7708 H         1 UNK         0.0690 
     96 H96        24.8725   22.2741   -0.7356 H         1 UNK         0.0788 
     97 H97        24.0348   23.6822   -1.3903 H         1 UNK         0.0788 
     98 H98        23.8540   23.2570    0.3023 H         1 UNK         0.0788 
     99 H99        27.7321   23.7139   -0.7692 H         1 UNK         0.2993 
    100 H100       27.9647   23.6262   -4.0848 H         1 UNK         0.0949 
    101 H101       28.5879   26.4667   -3.0953 H         1 UNK         0.0767 
    102 H102       29.3437   25.6763   -4.4786 H         1 UNK         0.0767 
    103 H103       27.6321   26.0569   -4.5132 H         1 UNK         0.0767 
    104 H104       29.7815   24.6205   -1.9721 H         1 UNK         0.3013 
    105 H105       28.7186   28.9840    5.0286 H         1 UNK         0.3121 
    106 H106       29.3634   30.8796    5.9154 H         1 UNK         0.0774 
    107 H107       27.8726   32.7203    6.5311 H         1 UNK         0.0815 
    108 H108       26.5659   32.0735    5.5580 H         1 UNK         0.0815 
    109 H109       27.1279   31.1941    6.9789 H         1 UNK         0.0815 
    110 H110       27.2651   31.5380    3.0932 H         1 UNK         0.2987 
    111 H111       28.6488   33.7953    2.0854 H         1 UNK         0.0949 
    112 H112       27.3781   33.3007   -0.0202 H         1 UNK         0.0806 
    113 H113       26.9190   31.7289    0.6201 H         1 UNK         0.0806 
    114 H114       26.3442   33.2037    1.3961 H         1 UNK         0.0806 
    115 H115       29.1668   30.3282    1.4520 H         1 UNK         0.3010 
    116 H116       31.1753   30.5467   -0.5180 H         1 UNK         0.0829 
    117 H117       29.9987   28.4400   -0.0817 H         1 UNK         0.0813 
    118 H118       31.7061   28.1695    0.2100 H         1 UNK         0.0813 
    119 H119       30.6064   28.3741    1.5679 H         1 UNK         0.0813 
    120 H120       31.4371   31.3402    2.8221 H         1 UNK         0.3038 
    121 H121       32.9799   32.0489    4.1744 H         1 UNK         0.0769 
    122 H122       34.9070   33.2984    3.2378 H         1 UNK         0.0811 
    123 H123       33.4442   33.6327    2.3246 H         1 UNK         0.0811 
    124 H124       34.6682   32.5467    1.6679 H         1 UNK         0.0811 
    125 H125       34.2697   29.5687    2.0808 H         1 UNK         0.3204 
    126 H126       36.6554   28.9337    3.4769 H         1 UNK         0.0748 
    127 H127       36.6457   26.9330    1.9978 H         1 UNK         0.0771 
    128 H128       34.9622   27.2267    1.5775 H         1 UNK         0.0771 
    129 H129       36.2117   28.3729    1.0948 H         1 UNK         0.0771 
    130 H130       35.0267   29.1563    5.5663 H         1 UNK         0.2980 
    131 H131       35.3187   26.5826    6.8674 H         1 UNK         0.0545 
    132 H132       35.8677   29.8776    7.0647 H         1 UNK         0.3459 
    133 H133       35.9336   29.9565    8.8025 H         1 UNK         0.3459 
    134 H134       33.0297   26.3898    7.7407 H         1 UNK         0.0616 
    135 H135       33.0564   26.2578    6.0155 H         1 UNK         0.0616 
    136 H136       30.8696   29.1518    4.7812 H         1 UNK         0.0634 
    137 H137       32.4705   28.5851    4.4184 H         1 UNK         0.0634 
@<TRIPOS>BOND
     1    1    2 1    
     2    1   72 1    
     3    1   73 1    
     4    1   74 1    
     5    2    3 2    
     6    2    4 am   BACKBONE|DICT|INTERRES
     7    4    5 1    
     8    4   75 1    
     9    5    6 1    
    10    5   35 1    
    11    5   76 1    
    12    6    7 1    
    13    6   77 1    
    14    6   78 1    
    15    7    8 1    
    16    8    9 1    
    17    8   79 1    
    18    8   80 1    
    19    9   10 ar   
    20    9   14 ar   
    21   10   11 ar   
    22   10   81 1    
    23   11   12 ar   
    24   11   71 1    
    25   12   13 ar   
    26   12   82 1    
    27   13   14 ar   
    28   13   15 1    
    29   14   83 1    
    30   15   16 1    
    31   15   84 1    
    32   15   85 1    
    33   16   17 1    
    34   17   18 1    
    35   17   86 1    
    36   17   87 1    
    37   18   19 1    
    38   18   37 1    
    39   18   88 1    
    40   19   20 am   BACKBONE|DICT|INTERRES
    41   19   89 1    
    42   20   21 2    
    43   20   22 1    
    44   22   23 1    
    45   22   24 1    
    46   22   90 1    
    47   23   91 1    
    48   23   92 1    
    49   23   93 1    
    50   24   25 am   BACKBONE|DICT|INTERRES
    51   24   94 1    
    52   25   26 2    
    53   25   27 1    
    54   27   28 1    
    55   27   29 1    
    56   27   95 1    
    57   28   96 1    
    58   28   97 1    
    59   28   98 1    
    60   29   30 am   BACKBONE|DICT|INTERRES
    61   29   99 1    
    62   30   31 2    
    63   30   32 1    
    64   32   33 1    
    65   32   34 1    
    66   32  100 1    
    67   33  101 1    
    68   33  102 1    
    69   33  103 1    
    70   34   35 am   BACKBONE|DICT|INTERRES
    71   34  104 1    
    72   35   36 2    
    73   37   38 2    
    74   37   39 am   BACKBONE|DICT|INTERRES
    75   39   40 1    
    76   39  105 1    
    77   40   41 1    
    78   40   42 1    
    79   40  106 1    
    80   41  107 1    
    81   41  108 1    
    82   41  109 1    
    83   42   43 2    
    84   42   44 am   BACKBONE|DICT|INTERRES
    85   44   45 1    
    86   44  110 1    
    87   45   46 1    
    88   45   47 1    
    89   45  111 1    
    90   46  112 1    
    91   46  113 1    
    92   46  114 1    
    93   47   48 2    
    94   47   49 am   BACKBONE|DICT|INTERRES
    95   49   50 1    
    96   49  115 1    
    97   50   51 1    
    98   50   52 1    
    99   50  116 1    
   100   51  117 1    
   101   51  118 1    
   102   51  119 1    
   103   52   53 2    
   104   52   54 am   BACKBONE|DICT|INTERRES
   105   54   55 1    
   106   54  120 1    
   107   55   56 1    
   108   55   57 1    
   109   55  121 1    
   110   56  122 1    
   111   56  123 1    
   112   56  124 1    
   113   57   58 2    
   114   57   59 am   BACKBONE|DICT|INTERRES
   115   59   60 1    
   116   59  125 1    
   117   60   61 1    
   118   60   62 1    
   119   60  126 1    
   120   61  127 1    
   121   61  128 1    
   122   61  129 1    
   123   62   63 2    
   124   62   64 am   BACKBONE|DICT|INTERRES
   125   64   65 1    
   126   64  130 1    
   127   65   66 1    
   128   65   69 1    
   129   65  131 1    
   130   66   67 am   BACKBONE|DICT|INTERRES
   131   66   68 2    
   132   67  132 1    
   133   67  133 1    
   134   69   70 1    
   135   69  134 1    
   136   69  135 1    
   137   70   71 1    
   138   71  136 1    
   139   71  137 1    
@<TRIPOS>SUBSTRUCTURE
     1 UNK         1 GROUP             0       ****    0 ROOT    
