@<TRIPOS>MOLECULE
3R136
137   139    1
SMALL
USER_CHARGES


@<TRIPOS>ATOM
      1 CA         26.4048   18.3741   -0.0260 C.3       0 UNK        -0.1979 
      2 C          27.1434   19.5573   -0.6341 C.2       0 UNK         0.4864 
      3 O          27.1941   19.6840   -1.8587 O.2       0 UNK        -0.5359 
      4 N          27.7234   20.4186    0.2107 N.am      1 UNK        -0.4318 
      5 CA         28.4121   21.6514   -0.1779 C.3       1 UNK         0.0824 
      6 C6         29.3055   22.2174    0.9619 C.3       12 UNK        -0.0944 
      7 S7         28.5407   22.1885    2.6270 S.3       12 UNK        -0.2672 
      8 C8         29.9712   21.8469    3.7012 C.3       12 UNK         0.0333 
      9 C9         30.7333   23.1182    4.0494 C.ar      12 UNK        -0.0807 
     10 C10        31.5961   23.7005    3.1161 C.ar      12 UNK        -0.0894 
     11 C11        32.2939   24.8698    3.4275 C.ar      12 UNK        -0.0804 
     12 C12        32.1470   25.4401    4.6952 C.ar      12 UNK        -0.0824 
     13 C13        31.3025   24.8602    5.6456 C.ar      12 UNK        -0.0762 
     14 C14        30.5876   23.7053    5.3116 C.ar      12 UNK        -0.0782 
     15 C15        31.1942   25.4546    7.0440 C.3       12 UNK         0.0230 
     16 S16        29.8422   26.6665    7.1893 S.3       12 UNK        -0.2608 
     17 C17        30.5508   28.1373    6.3615 C.3       12 UNK        -0.0989 
     18 CA         29.7358   28.6127    5.1315 C.3       5 UNK         0.0716 
     19 N          29.4758   27.5101    4.1923 N.am      5 UNK        -0.4135 
     20 C          28.9225   27.6145    2.9791 C.2       4 UNK         0.5031 
     21 O          28.5104   28.6738    2.5009 O.2       4 UNK        -0.5229 
     22 CA         28.6846   26.2995    2.2244 C.3       4 UNK         0.0329 
     23 CB         27.3733   25.6566    2.7040 C.3       4 UNK        -0.2001 
     24 N          28.5914   26.5231    0.7832 N.am      4 UNK        -0.4303 
     25 C          29.6195   26.8319   -0.0152 C.2       3 UNK         0.5044 
     26 O          30.7890   26.8891    0.3639 O.2       3 UNK        -0.5152 
     27 CA         29.2751   27.0717   -1.4960 C.3       3 UNK         0.0319 
     28 CB         30.5121   27.4222   -2.3448 C.3       3 UNK        -0.2001 
     29 N          28.6259   25.8889   -2.0643 N.am      3 UNK        -0.4354 
     30 C          27.3123   25.6278   -2.0115 C.2       2 UNK         0.4964 
     31 O          26.4823   26.3879   -1.5125 O.2       2 UNK        -0.5047 
     32 CA         26.8694   24.2619   -2.5551 C.3       2 UNK         0.0288 
     33 CB         27.0065   24.1979   -4.0861 C.3       2 UNK        -0.2113 
     34 N          27.6437   23.1820   -1.9382 N.am      2 UNK        -0.4145 
     35 C          27.4113   22.6994   -0.7087 C.2       1 UNK         0.5006 
     36 O          26.4619   23.0502   -0.0041 O.2       1 UNK        -0.5103 
     37 C          28.4873   29.4196    5.5633 C.2       5 UNK         0.5055 
     38 O          28.6371   30.5095    6.1175 O.2       5 UNK        -0.5220 
     39 N          27.2824   28.8950    5.2998 N.am      6 UNK        -0.4450 
     40 CA         26.0134   29.6083    5.4458 C.3       6 UNK         0.0367 
     41 CB         24.8606   28.5932    5.3782 C.3       6 UNK        -0.1929 
     42 C          25.8132   30.7179    4.3927 C.2       6 UNK         0.5070 
     43 O          25.0260   31.6319    4.6413 O.2       6 UNK        -0.5237 
     44 N          26.4999   30.6192    3.2450 N.am      7 UNK        -0.4739 
     45 CA         26.4126   31.5638    2.1293 C.3       7 UNK         0.0276 
     46 CB         25.8002   30.8502    0.9118 C.3       7 UNK        -0.1927 
     47 C          27.7834   32.1570    1.7710 C.2       7 UNK         0.5013 
     48 O          27.8722   33.3636    1.5385 O.2       7 UNK        -0.5193 
     49 N          28.8203   31.3119    1.7126 N.am      8 UNK        -0.4253 
     50 CA         30.1931   31.6971    1.3882 C.3       8 UNK         0.0242 
     51 CB         30.9429   30.4600    0.8620 C.3       8 UNK        -0.2000 
     52 C          30.9214   32.2727    2.6112 C.2       8 UNK         0.4948 
     53 O          30.5857   31.9396    3.7498 O.2       8 UNK        -0.5275 
     54 N          31.9549   33.0834    2.3507 N.am      9 UNK        -0.4246 
     55 CA         32.9269   33.5278    3.3500 C.3       9 UNK         0.0261 
     56 CB         33.6616   34.7748    2.8257 C.3       9 UNK        -0.1959 
     57 C          33.8913   32.3665    3.6359 C.2       9 UNK         0.5033 
     58 O          34.8626   32.1900    2.8960 O.2       9 UNK        -0.5390 
     59 N          33.5483   31.5475    4.6409 N.am      10 UNK        -0.4215 
     60 CA         34.1238   30.2302    4.9349 C.3       10 UNK         0.0240 
     61 CB         35.6019   30.3317    5.3775 C.3       10 UNK        -0.1982 
     62 C          33.8770   29.2836    3.7473 C.2       10 UNK         0.4970 
     63 O          32.7577   28.7926    3.6130 O.2       10 UNK        -0.4916 
     64 N          34.8922   29.0882    2.8997 N.am      11 UNK        -0.4279 
     65 CA         34.7933   28.3932    1.6071 C.3       11 UNK         0.1003 
     66 C          35.3001   29.2679    0.4235 C.2       11 UNK         0.5709 
     67 N          35.4969   30.5719    0.5888 N.am      11 UNK        -0.7358 
     68 O          35.5064   28.7625   -0.6773 O.2       11 UNK        -0.4999 
     69 C69        35.4540   26.9822    1.6304 C.3       12 UNK        -0.0954 
     70 S70        34.8513   25.8836    2.9581 S.3       12 UNK        -0.2268 
     71 C71        33.1579   25.5492    2.3759 C.3       12 UNK         0.0203 
     72 H72        26.4497   18.3822    1.0630 H         1 UNK         0.0888 
     73 H73        25.3564   18.3942   -0.3222 H         1 UNK         0.0888 
     74 H74        26.8409   17.4390   -0.3763 H         1 UNK         0.0888 
     75 H75        27.6239   20.2900    1.2082 H         1 UNK         0.3017 
     76 H76        29.0811   21.3923   -1.0019 H         1 UNK         0.0873 
     77 H77        30.2218   21.6269    0.9977 H         1 UNK         0.0745 
     78 H78        29.6261   23.2380    0.7416 H         1 UNK         0.0745 
     79 H79        29.6079   21.3676    4.6116 H         1 UNK         0.0705 
     80 H80        30.6384   21.1238    3.2303 H         1 UNK         0.0705 
     81 H81        31.7094   23.2538    2.1386 H         1 UNK         0.1334 
     82 H82        32.7001   26.3372    4.9350 H         1 UNK         0.1417 
     83 H83        29.9289   23.2547    6.0420 H         1 UNK         0.1562 
     84 H84        32.1377   25.9183    7.3367 H         1 UNK         0.0748 
     85 H85        31.0202   24.6556    7.7663 H         1 UNK         0.0748 
     86 H86        31.5733   27.9274    6.0514 H         1 UNK         0.0940 
     87 H87        30.6492   28.9362    7.0995 H         1 UNK         0.0940 
     88 H88        30.3558   29.3284    4.5885 H         1 UNK         0.0703 
     89 H89        29.7597   26.5971    4.5206 H         1 UNK         0.3081 
     90 H90        29.5138   25.6162    2.4177 H         1 UNK         0.0719 
     91 H91        27.4408   25.3598    3.7515 H         1 UNK         0.0809 
     92 H92        27.1389   24.7592    2.1317 H         1 UNK         0.0809 
     93 H93        26.5273   26.3387    2.6069 H         1 UNK         0.0809 
     94 H94        27.6641   26.5174    0.3776 H         1 UNK         0.2990 
     95 H95        28.5918   27.9228   -1.5377 H         1 UNK         0.0690 
     96 H96        30.2377   27.6243   -3.3803 H         1 UNK         0.0788 
     97 H97        31.2469   26.6161   -2.3429 H         1 UNK         0.0788 
     98 H98        31.0077   28.3154   -1.9619 H         1 UNK         0.0788 
     99 H99        29.2395   25.1923   -2.4604 H         1 UNK         0.2993 
    100 H100       25.8138   24.1289   -2.3060 H         1 UNK         0.0949 
    101 H101       26.4371   24.9981   -4.5611 H         1 UNK         0.0767 
    102 H102       28.0426   24.2970   -4.4121 H         1 UNK         0.0767 
    103 H103       26.6230   23.2547   -4.4761 H         1 UNK         0.0767 
    104 H104       28.4189   22.8134   -2.4704 H         1 UNK         0.3013 
    105 H105       27.2465   27.9841    4.8684 H         1 UNK         0.3121 
    106 H106       25.9972   30.0813    6.4301 H         1 UNK         0.0774 
    107 H107       23.8980   29.0878    5.5159 H         1 UNK         0.0815 
    108 H108       24.8282   28.0814    4.4154 H         1 UNK         0.0815 
    109 H109       24.9490   27.8380    6.1594 H         1 UNK         0.0815 
    110 H110       27.1531   29.8490    3.1296 H         1 UNK         0.2987 
    111 H111       25.7632   32.4025    2.3901 H         1 UNK         0.0949 
    112 H112       24.7900   30.5016    1.1265 H         1 UNK         0.0806 
    113 H113       25.7359   31.5225    0.0552 H         1 UNK         0.0806 
    114 H114       26.3937   29.9866    0.6075 H         1 UNK         0.0806 
    115 H115       28.6808   30.3345    1.9645 H         1 UNK         0.3010 
    116 H116       30.1708   32.4545    0.6015 H         1 UNK         0.0829 
    117 H117       30.4504   30.0395   -0.0146 H         1 UNK         0.0813 
    118 H118       31.9649   30.7080    0.5725 H         1 UNK         0.0813 
    119 H119       31.0037   29.6743    1.6171 H         1 UNK         0.0813 
    120 H120       32.1857   33.2816    1.3876 H         1 UNK         0.3038 
    121 H121       32.4085   33.8006    4.2721 H         1 UNK         0.0769 
    122 H122       34.1781   34.5804    1.8847 H         1 UNK         0.0811 
    123 H123       34.4099   35.1139    3.5431 H         1 UNK         0.0811 
    124 H124       32.9704   35.6019    2.6629 H         1 UNK         0.0811 
    125 H125       32.6735   31.7461    5.1098 H         1 UNK         0.3204 
    126 H126       33.5584   29.8232    5.7747 H         1 UNK         0.0748 
    127 H127       36.0097   29.3446    5.6000 H         1 UNK         0.0771 
    128 H128       36.2425   30.7892    4.6236 H         1 UNK         0.0771 
    129 H129       35.6936   30.9272    6.2858 H         1 UNK         0.0771 
    130 H130       35.7640   29.5671    3.0721 H         1 UNK         0.2980 
    131 H131       33.7392   28.2601    1.3636 H         1 UNK         0.0545 
    132 H132       35.8241   31.1144   -0.1941 H         1 UNK         0.3459 
    133 H133       35.2872   31.0412    1.4666 H         1 UNK         0.3459 
    134 H134       35.2968   26.4699    0.6796 H         1 UNK         0.0616 
    135 H135       36.5344   27.0794    1.7478 H         1 UNK         0.0616 
    136 H136       33.2056   24.9585    1.4599 H         1 UNK         0.0634 
    137 H137       32.6686   26.4861    2.1181 H         1 UNK         0.0634 
@<TRIPOS>BOND
     1    1    2 1    
     2    1   72 1    
     3    1   73 1    
     4    1   74 1    
     5    2    3 2    
     6    2    4 am   BACKBONE|DICT|INTERRES
     7    4    5 1    
     8    4   75 1    
     9    5    6 1    
    10    5   35 1    
    11    5   76 1    
    12    6    7 1    
    13    6   77 1    
    14    6   78 1    
    15    7    8 1    
    16    8    9 1    
    17    8   79 1    
    18    8   80 1    
    19    9   10 ar   
    20    9   14 ar   
    21   10   11 ar   
    22   10   81 1    
    23   11   12 ar   
    24   11   71 1    
    25   12   13 ar   
    26   12   82 1    
    27   13   14 ar   
    28   13   15 1    
    29   14   83 1    
    30   15   16 1    
    31   15   84 1    
    32   15   85 1    
    33   16   17 1    
    34   17   18 1    
    35   17   86 1    
    36   17   87 1    
    37   18   19 1    
    38   18   37 1    
    39   18   88 1    
    40   19   20 am   BACKBONE|DICT|INTERRES
    41   19   89 1    
    42   20   21 2    
    43   20   22 1    
    44   22   23 1    
    45   22   24 1    
    46   22   90 1    
    47   23   91 1    
    48   23   92 1    
    49   23   93 1    
    50   24   25 am   BACKBONE|DICT|INTERRES
    51   24   94 1    
    52   25   26 2    
    53   25   27 1    
    54   27   28 1    
    55   27   29 1    
    56   27   95 1    
    57   28   96 1    
    58   28   97 1    
    59   28   98 1    
    60   29   30 am   BACKBONE|DICT|INTERRES
    61   29   99 1    
    62   30   31 2    
    63   30   32 1    
    64   32   33 1    
    65   32   34 1    
    66   32  100 1    
    67   33  101 1    
    68   33  102 1    
    69   33  103 1    
    70   34   35 am   BACKBONE|DICT|INTERRES
    71   34  104 1    
    72   35   36 2    
    73   37   38 2    
    74   37   39 am   BACKBONE|DICT|INTERRES
    75   39   40 1    
    76   39  105 1    
    77   40   41 1    
    78   40   42 1    
    79   40  106 1    
    80   41  107 1    
    81   41  108 1    
    82   41  109 1    
    83   42   43 2    
    84   42   44 am   BACKBONE|DICT|INTERRES
    85   44   45 1    
    86   44  110 1    
    87   45   46 1    
    88   45   47 1    
    89   45  111 1    
    90   46  112 1    
    91   46  113 1    
    92   46  114 1    
    93   47   48 2    
    94   47   49 am   BACKBONE|DICT|INTERRES
    95   49   50 1    
    96   49  115 1    
    97   50   51 1    
    98   50   52 1    
    99   50  116 1    
   100   51  117 1    
   101   51  118 1    
   102   51  119 1    
   103   52   53 2    
   104   52   54 am   BACKBONE|DICT|INTERRES
   105   54   55 1    
   106   54  120 1    
   107   55   56 1    
   108   55   57 1    
   109   55  121 1    
   110   56  122 1    
   111   56  123 1    
   112   56  124 1    
   113   57   58 2    
   114   57   59 am   BACKBONE|DICT|INTERRES
   115   59   60 1    
   116   59  125 1    
   117   60   61 1    
   118   60   62 1    
   119   60  126 1    
   120   61  127 1    
   121   61  128 1    
   122   61  129 1    
   123   62   63 2    
   124   62   64 am   BACKBONE|DICT|INTERRES
   125   64   65 1    
   126   64  130 1    
   127   65   66 1    
   128   65   69 1    
   129   65  131 1    
   130   66   67 am   BACKBONE|DICT|INTERRES
   131   66   68 2    
   132   67  132 1    
   133   67  133 1    
   134   69   70 1    
   135   69  134 1    
   136   69  135 1    
   137   70   71 1    
   138   71  136 1    
   139   71  137 1    
@<TRIPOS>SUBSTRUCTURE
     1 UNK         1 GROUP             0       ****    0 ROOT    
