@<TRIPOS>MOLECULE
3R136
137   139    1
SMALL
USER_CHARGES


@<TRIPOS>ATOM
      1 CA         29.3189   20.6865   -1.1453 C.3       0 UNK        -0.1979 
      2 C          30.0713   21.3742   -2.2827 C.2       0 UNK         0.4864 
      3 O          30.6104   20.6764   -3.1401 O.2       0 UNK        -0.5359 
      4 N          30.1521   22.7129   -2.3577 N.am      1 UNK        -0.4318 
      5 CA         29.5823   23.7462   -1.4757 C.3       1 UNK         0.0824 
      6 C6         30.0840   23.6983   -0.0055 C.3       12 UNK        -0.0944 
      7 S7         31.9001   23.7292    0.1554 S.3       12 UNK        -0.2672 
      8 C8         32.1552   22.6083    1.5698 C.3       12 UNK         0.0333 
      9 C9         31.6825   23.2290    2.8784 C.ar      12 UNK        -0.0807 
     10 C10        32.5708   23.9582    3.6755 C.ar      12 UNK        -0.0894 
     11 C11        32.1423   24.5214    4.8819 C.ar      12 UNK        -0.0804 
     12 C12        30.8096   24.3728    5.2787 C.ar      12 UNK        -0.0824 
     13 C13        29.9092   23.6598    4.4816 C.ar      12 UNK        -0.0762 
     14 C14        30.3579   23.0701    3.2976 C.ar      12 UNK        -0.0782 
     15 C15        28.4455   23.5376    4.8800 C.3       12 UNK         0.0230 
     16 S16        27.3782   24.5847    3.8344 S.3       12 UNK        -0.2608 
     17 C17        27.9045   26.2619    4.3268 C.3       12 UNK        -0.0989 
     18 CA         28.9292   26.8804    3.3302 C.3       5 UNK         0.0716 
     19 N          28.4362   26.9901    1.9507 N.am      5 UNK        -0.4135 
     20 C          27.4203   27.7505    1.5175 C.2       4 UNK         0.5031 
     21 O          26.6556   28.3721    2.2572 O.2       4 UNK        -0.5229 
     22 CA         27.2419   27.8647   -0.0038 C.3       4 UNK         0.0329 
     23 CB         28.5309   27.5852   -0.8056 C.3       4 UNK        -0.2001 
     24 N          26.1899   26.9470   -0.4357 N.am      4 UNK        -0.4303 
     25 C          24.9525   27.3133   -0.7996 C.2       3 UNK         0.5044 
     26 O          24.5694   28.4846   -0.8285 O.2       3 UNK        -0.5152 
     27 CA         23.9678   26.1877   -1.1904 C.3       3 UNK         0.0319 
     28 CB         22.8690   26.6664   -2.1642 C.3       3 UNK        -0.2001 
     29 N          24.6178   24.9706   -1.6953 N.am      3 UNK        -0.4354 
     30 C          25.3872   24.8502   -2.7880 C.2       2 UNK         0.4964 
     31 O          25.6329   25.7642   -3.5774 O.2       2 UNK        -0.5047 
     32 CA         26.0325   23.4693   -3.0046 C.3       2 UNK         0.0288 
     33 CB         25.7974   22.9597   -4.4372 C.3       2 UNK        -0.2113 
     34 N          27.4723   23.4841   -2.7280 N.am      2 UNK        -0.4145 
     35 C          28.0408   23.8361   -1.5641 C.2       1 UNK         0.5006 
     36 O          27.3966   24.2065   -0.5795 O.2       1 UNK        -0.5103 
     37 C          29.5308   28.2259    3.7991 C.2       5 UNK         0.5055 
     38 O          29.8712   29.0636    2.9585 O.2       5 UNK        -0.5220 
     39 N          29.6780   28.4258    5.1173 N.am      6 UNK        -0.4450 
     40 CA         30.3446   29.5821    5.7351 C.3       6 UNK         0.0367 
     41 CB         30.3744   29.3951    7.2598 C.3       6 UNK        -0.1929 
     42 C          29.7565   30.9583    5.3703 C.2       6 UNK         0.5070 
     43 O          30.4644   31.9585    5.4740 O.2       6 UNK        -0.5237 
     44 N          28.4994   30.9877    4.9089 N.am      7 UNK        -0.4739 
     45 CA         27.8290   32.1737    4.3731 C.3       7 UNK         0.0276 
     46 CB         26.3395   31.8522    4.1692 C.3       7 UNK        -0.1927 
     47 C          28.4448   32.7073    3.0634 C.2       7 UNK         0.5013 
     48 O          28.2524   33.8866    2.7635 O.2       7 UNK        -0.5193 
     49 N          29.1542   31.8527    2.3105 N.am      8 UNK        -0.4253 
     50 CA         29.7893   32.2014    1.0357 C.3       8 UNK         0.0242 
     51 CB         28.9974   31.5659   -0.1184 C.3       8 UNK        -0.2000 
     52 C          31.2658   31.7820    0.9778 C.2       8 UNK         0.4948 
     53 O          32.0784   32.5311    0.4351 O.2       8 UNK        -0.5275 
     54 N          31.5992   30.6077    1.5297 N.am      9 UNK        -0.4246 
     55 CA         32.9469   30.0315    1.5265 C.3       9 UNK         0.0261 
     56 CB         32.8296   28.4970    1.5756 C.3       9 UNK        -0.1959 
     57 C          33.8309   30.5326    2.6820 C.2       9 UNK         0.5033 
     58 O          35.0172   30.1998    2.7042 O.2       9 UNK        -0.5390 
     59 N          33.2512   31.2775    3.6368 N.am      10 UNK        -0.4215 
     60 CA         33.8393   31.8196    4.8728 C.3       10 UNK         0.0240 
     61 CB         35.0210   32.7656    4.5808 C.3       10 UNK        -0.1982 
     62 C          34.2212   30.7526    5.9158 C.2       10 UNK         0.4970 
     63 O          33.9033   30.9300    7.0917 O.2       10 UNK        -0.4916 
     64 N          34.8782   29.6741    5.4712 N.am      11 UNK        -0.4279 
     65 CA         35.3031   28.5050    6.2616 C.3       11 UNK         0.1003 
     66 C          36.3893   28.8069    7.3405 C.2       11 UNK         0.5709 
     67 N          37.1054   29.9227    7.2627 N.am      11 UNK        -0.7358 
     68 O          36.6175   28.0048    8.2434 O.2       11 UNK        -0.4999 
     69 C69        34.0998   27.6906    6.8199 C.3       12 UNK        -0.0954 
     70 S70        32.9991   27.0716    5.5009 S.3       12 UNK        -0.2268 
     71 C71        33.1183   25.2790    5.7674 C.3       12 UNK         0.0203 
     72 H72        29.0166   19.6848   -1.4500 H         1 UNK         0.0888 
     73 H73        29.9665   20.5838   -0.2755 H         1 UNK         0.0888 
     74 H74        28.4154   21.2149   -0.8505 H         1 UNK         0.0888 
     75 H75        30.6870   23.0902   -3.1277 H         1 UNK         0.3017 
     76 H76        29.9356   24.6901   -1.8935 H         1 UNK         0.0873 
     77 H77        29.6867   22.8171    0.4931 H         1 UNK         0.0745 
     78 H78        29.7052   24.5504    0.5606 H         1 UNK         0.0745 
     79 H79        33.2174   22.3683    1.6371 H         1 UNK         0.0705 
     80 H80        31.6441   21.6615    1.3892 H         1 UNK         0.0705 
     81 H81        33.5978   24.0822    3.3596 H         1 UNK         0.1334 
     82 H82        30.4749   24.8209    6.2043 H         1 UNK         0.1417 
     83 H83        29.6607   22.5053    2.6957 H         1 UNK         0.1562 
     84 H84        28.3006   23.7978    5.9298 H         1 UNK         0.0748 
     85 H85        28.1291   22.4985    4.7779 H         1 UNK         0.0748 
     86 H86        28.3133   26.1955    5.3353 H         1 UNK         0.0940 
     87 H87        27.0158   26.8897    4.4074 H         1 UNK         0.0940 
     88 H88        29.7844   26.2067    3.2726 H         1 UNK         0.0703 
     89 H89        29.0097   26.5393    1.2558 H         1 UNK         0.3081 
     90 H90        26.9549   28.8986   -0.2066 H         1 UNK         0.0719 
     91 H91        28.8586   26.5520   -0.7184 H         1 UNK         0.0809 
     92 H92        28.3790   27.7906   -1.8655 H         1 UNK         0.0809 
     93 H93        29.3541   28.2180   -0.4716 H         1 UNK         0.0809 
     94 H94        26.4193   25.9576   -0.4143 H         1 UNK         0.2990 
     95 H95        23.4739   25.8973   -0.2620 H         1 UNK         0.0690 
     96 H96        22.1786   25.8600   -2.4117 H         1 UNK         0.0788 
     97 H97        23.2906   27.0455   -3.0957 H         1 UNK         0.0788 
     98 H98        22.2783   27.4712   -1.7249 H         1 UNK         0.0788 
     99 H99        24.5254   24.1601   -1.0978 H         1 UNK         0.2993 
    100 H100       25.5731   22.7555   -2.3175 H         1 UNK         0.0949 
    101 H101       24.7323   22.9352   -4.6720 H         1 UNK         0.0767 
    102 H102       26.2796   23.5983   -5.1787 H         1 UNK         0.0767 
    103 H103       26.1799   21.9470   -4.5667 H         1 UNK         0.0767 
    104 H104       28.0774   23.2108   -3.4887 H         1 UNK         0.3013 
    105 H105       29.3794   27.7008    5.7519 H         1 UNK         0.3121 
    106 H106       31.3752   29.5828    5.3763 H         1 UNK         0.0774 
    107 H107       30.9133   30.2131    7.7407 H         1 UNK         0.0815 
    108 H108       29.3700   29.3700    7.6839 H         1 UNK         0.0815 
    109 H109       30.8833   28.4720    7.5378 H         1 UNK         0.0815 
    110 H110       27.9964   30.1144    4.8449 H         1 UNK         0.2987 
    111 H111       27.9117   32.9698    5.1164 H         1 UNK         0.0949 
    112 H112       25.7993   32.7225    3.7938 H         1 UNK         0.0806 
    113 H113       26.1966   31.0445    3.4495 H         1 UNK         0.0806 
    114 H114       25.8642   31.5574    5.1049 H         1 UNK         0.0806 
    115 H115       29.2654   30.8977    2.6380 H         1 UNK         0.3010 
    116 H116       29.7746   33.2842    0.8934 H         1 UNK         0.0829 
    117 H117       27.9760   31.9452   -0.1521 H         1 UNK         0.0813 
    118 H118       29.4586   31.7878   -1.0819 H         1 UNK         0.0813 
    119 H119       28.9475   30.4828   -0.0189 H         1 UNK         0.0813 
    120 H120       30.8807   30.0348    1.9738 H         1 UNK         0.3038 
    121 H121       33.4460   30.3028    0.5938 H         1 UNK         0.0769 
    122 H122       33.8084   28.0266    1.4724 H         1 UNK         0.0811 
    123 H123       32.2027   28.1176    0.7686 H         1 UNK         0.0811 
    124 H124       32.4063   28.1529    2.5199 H         1 UNK         0.0811 
    125 H125       32.2650   31.4669    3.5244 H         1 UNK         0.3204 
    126 H126       33.0544   32.4258    5.3267 H         1 UNK         0.0748 
    127 H127       35.3707   33.2427    5.4973 H         1 UNK         0.0771 
    128 H128       35.8722   32.2416    4.1454 H         1 UNK         0.0771 
    129 H129       34.7302   33.5601    3.8934 H         1 UNK         0.0771 
    130 H130       35.1040   29.6503    4.4797 H         1 UNK         0.2980 
    131 H131       35.8171   27.8581    5.5501 H         1 UNK         0.0545 
    132 H132       37.8134   30.1044    7.9564 H         1 UNK         0.3459 
    133 H133       36.9412   30.5835    6.5208 H         1 UNK         0.3459 
    134 H134       33.5083   28.2963    7.5075 H         1 UNK         0.0616 
    135 H135       34.4535   26.8395    7.4037 H         1 UNK         0.0616 
    136 H136       32.9101   25.0529    6.8144 H         1 UNK         0.0634 
    137 H137       34.1422   24.9538    5.5763 H         1 UNK         0.0634 
@<TRIPOS>BOND
     1    1    2 1    
     2    1   72 1    
     3    1   73 1    
     4    1   74 1    
     5    2    3 2    
     6    2    4 am   BACKBONE|DICT|INTERRES
     7    4    5 1    
     8    4   75 1    
     9    5    6 1    
    10    5   35 1    
    11    5   76 1    
    12    6    7 1    
    13    6   77 1    
    14    6   78 1    
    15    7    8 1    
    16    8    9 1    
    17    8   79 1    
    18    8   80 1    
    19    9   10 ar   
    20    9   14 ar   
    21   10   11 ar   
    22   10   81 1    
    23   11   12 ar   
    24   11   71 1    
    25   12   13 ar   
    26   12   82 1    
    27   13   14 ar   
    28   13   15 1    
    29   14   83 1    
    30   15   16 1    
    31   15   84 1    
    32   15   85 1    
    33   16   17 1    
    34   17   18 1    
    35   17   86 1    
    36   17   87 1    
    37   18   19 1    
    38   18   37 1    
    39   18   88 1    
    40   19   20 am   BACKBONE|DICT|INTERRES
    41   19   89 1    
    42   20   21 2    
    43   20   22 1    
    44   22   23 1    
    45   22   24 1    
    46   22   90 1    
    47   23   91 1    
    48   23   92 1    
    49   23   93 1    
    50   24   25 am   BACKBONE|DICT|INTERRES
    51   24   94 1    
    52   25   26 2    
    53   25   27 1    
    54   27   28 1    
    55   27   29 1    
    56   27   95 1    
    57   28   96 1    
    58   28   97 1    
    59   28   98 1    
    60   29   30 am   BACKBONE|DICT|INTERRES
    61   29   99 1    
    62   30   31 2    
    63   30   32 1    
    64   32   33 1    
    65   32   34 1    
    66   32  100 1    
    67   33  101 1    
    68   33  102 1    
    69   33  103 1    
    70   34   35 am   BACKBONE|DICT|INTERRES
    71   34  104 1    
    72   35   36 2    
    73   37   38 2    
    74   37   39 am   BACKBONE|DICT|INTERRES
    75   39   40 1    
    76   39  105 1    
    77   40   41 1    
    78   40   42 1    
    79   40  106 1    
    80   41  107 1    
    81   41  108 1    
    82   41  109 1    
    83   42   43 2    
    84   42   44 am   BACKBONE|DICT|INTERRES
    85   44   45 1    
    86   44  110 1    
    87   45   46 1    
    88   45   47 1    
    89   45  111 1    
    90   46  112 1    
    91   46  113 1    
    92   46  114 1    
    93   47   48 2    
    94   47   49 am   BACKBONE|DICT|INTERRES
    95   49   50 1    
    96   49  115 1    
    97   50   51 1    
    98   50   52 1    
    99   50  116 1    
   100   51  117 1    
   101   51  118 1    
   102   51  119 1    
   103   52   53 2    
   104   52   54 am   BACKBONE|DICT|INTERRES
   105   54   55 1    
   106   54  120 1    
   107   55   56 1    
   108   55   57 1    
   109   55  121 1    
   110   56  122 1    
   111   56  123 1    
   112   56  124 1    
   113   57   58 2    
   114   57   59 am   BACKBONE|DICT|INTERRES
   115   59   60 1    
   116   59  125 1    
   117   60   61 1    
   118   60   62 1    
   119   60  126 1    
   120   61  127 1    
   121   61  128 1    
   122   61  129 1    
   123   62   63 2    
   124   62   64 am   BACKBONE|DICT|INTERRES
   125   64   65 1    
   126   64  130 1    
   127   65   66 1    
   128   65   69 1    
   129   65  131 1    
   130   66   67 am   BACKBONE|DICT|INTERRES
   131   66   68 2    
   132   67  132 1    
   133   67  133 1    
   134   69   70 1    
   135   69  134 1    
   136   69  135 1    
   137   70   71 1    
   138   71  136 1    
   139   71  137 1    
@<TRIPOS>SUBSTRUCTURE
     1 UNK         1 GROUP             0       ****    0 ROOT    
