@<TRIPOS>MOLECULE
3R136
137   139    1
SMALL
USER_CHARGES


@<TRIPOS>ATOM
      1 CA         25.4068   21.7181    3.7466 C.3       0 UNK        -0.1979 
      2 C          26.0575   22.2445    2.4771 C.2       0 UNK         0.4864 
      3 O          25.5050   23.1354    1.8313 O.2       0 UNK        -0.5359 
      4 N          27.2357   21.7155    2.1187 N.am      1 UNK        -0.4318 
      5 CA         28.0047   22.0991    0.9272 C.3       1 UNK         0.0824 
      6 C6         29.2174   21.1652    0.6895 C.3       12 UNK        -0.0944 
      7 S7         30.3896   21.0739    2.0926 S.3       12 UNK        -0.2672 
      8 C8         31.9902   21.3812    1.2795 C.3       12 UNK         0.0333 
      9 C9         32.2874   22.8658    1.1126 C.ar      12 UNK        -0.0807 
     10 C10        33.0325   23.5458    2.0819 C.ar      12 UNK        -0.0894 
     11 C11        33.3649   24.8931    1.9068 C.ar      12 UNK        -0.0804 
     12 C12        32.9288   25.5675    0.7623 C.ar      12 UNK        -0.0824 
     13 C13        32.1739   24.9018   -0.2076 C.ar      12 UNK        -0.0762 
     14 C14        31.8621   23.5507   -0.0299 C.ar      12 UNK        -0.0782 
     15 C15        31.7067   25.6336   -1.4558 C.3       12 UNK         0.0230 
     16 S16        30.2557   26.6677   -1.1000 S.3       12 UNK        -0.2608 
     17 C17        29.4683   26.7497   -2.7409 C.3       12 UNK        -0.0989 
     18 CA         27.9949   27.2283   -2.7147 C.3       5 UNK         0.0716 
     19 N          27.1110   26.3120   -1.9767 N.am      5 UNK        -0.4135 
     20 C          25.8029   26.1702   -2.2431 C.2       4 UNK         0.5031 
     21 O          25.2319   26.7346   -3.1776 O.2       4 UNK        -0.5229 
     22 CA         24.9743   25.2800   -1.2999 C.3       4 UNK         0.0329 
     23 CB         25.1539   23.7925   -1.6430 C.3       4 UNK        -0.2001 
     24 N          25.2626   25.5086    0.1182 N.am      4 UNK        -0.4303 
     25 C          25.0440   26.6617    0.7686 C.2       3 UNK         0.5044 
     26 O          24.5626   27.6656    0.2447 O.2       3 UNK        -0.5152 
     27 CA         25.4639   26.7221    2.2454 C.3       3 UNK         0.0319 
     28 CB         24.3601   26.1648    3.1583 C.3       3 UNK        -0.2001 
     29 N          26.7178   26.0075    2.4833 N.am      3 UNK        -0.4354 
     30 C          27.9207   26.4585    2.0990 C.2       2 UNK         0.4964 
     31 O          28.0987   27.5538    1.5682 O.2       2 UNK        -0.5047 
     32 CA         29.1180   25.5196    2.3215 C.3       2 UNK         0.0288 
     33 CB         29.6695   25.6784    3.7458 C.3       2 UNK        -0.2113 
     34 N          28.7931   24.1121    2.0865 N.am      2 UNK        -0.4145 
     35 C          28.3963   23.5916    0.9153 C.2       1 UNK         0.5006 
     36 O          28.2703   24.2406   -0.1239 O.2       1 UNK        -0.5103 
     37 C          27.8668   28.6997   -2.2539 C.2       5 UNK         0.5055 
     38 O          28.3684   29.5839   -2.9507 O.2       5 UNK        -0.5220 
     39 N          27.2027   28.9343   -1.1110 N.am      6 UNK        -0.4450 
     40 CA         26.9932   30.2201   -0.4375 C.3       6 UNK         0.0367 
     41 CB         26.1221   31.1642   -1.2936 C.3       6 UNK        -0.1929 
     42 C          28.3159   30.8581    0.0276 C.2       6 UNK         0.5070 
     43 O          28.5673   32.0369   -0.2330 O.2       6 UNK        -0.5237 
     44 N          29.1418   30.0567    0.7106 N.am      7 UNK        -0.4739 
     45 CA         30.3860   30.4858    1.3487 C.3       7 UNK         0.0276 
     46 CB         31.2310   29.2411    1.6738 C.3       7 UNK        -0.1927 
     47 C          30.1193   31.3021    2.6264 C.2       7 UNK         0.5013 
     48 O          29.0468   31.1889    3.2278 O.2       7 UNK        -0.5193 
     49 N          31.1244   32.0864    3.0372 N.am      8 UNK        -0.4253 
     50 CA         31.1597   32.7905    4.3225 C.3       8 UNK         0.0242 
     51 CB         32.3193   33.8013    4.2996 C.3       8 UNK        -0.2000 
     52 C          31.3299   31.8086    5.4955 C.2       8 UNK         0.4948 
     53 O          31.7903   30.6850    5.2874 O.2       8 UNK        -0.5275 
     54 N          31.0134   32.2630    6.7164 N.am      9 UNK        -0.4246 
     55 CA         31.0662   31.4704    7.9552 C.3       9 UNK         0.0261 
     56 CB         30.5631   32.3282    9.1278 C.3       9 UNK        -0.1959 
     57 C          32.4449   30.8635    8.2878 C.2       9 UNK         0.5033 
     58 O          32.5007   29.8080    8.9202 O.2       9 UNK        -0.5390 
     59 N          33.5242   31.5223    7.8443 N.am      10 UNK        -0.4215 
     60 CA         34.9028   31.0342    7.9476 C.3       10 UNK         0.0240 
     61 CB         35.8607   32.2331    7.8411 C.3       10 UNK        -0.1982 
     62 C          35.2614   29.9661    6.8933 C.2       10 UNK         0.4970 
     63 O          36.2923   29.3095    7.0433 O.2       10 UNK        -0.4916 
     64 N          34.4359   29.8239    5.8463 N.am      11 UNK        -0.4279 
     65 CA         34.6169   28.9257    4.6951 C.3       11 UNK         0.1003 
     66 C          35.8479   29.2499    3.7921 C.2       11 UNK         0.5709 
     67 N          36.4028   30.4554    3.8473 N.am      11 UNK        -0.7358 
     68 O          36.2942   28.4172    3.0077 O.2       11 UNK        -0.4999 
     69 C69        34.4810   27.4198    5.0835 C.3       12 UNK        -0.0954 
     70 S70        33.2054   26.5691    4.0950 S.3       12 UNK        -0.2268 
     71 C71        34.2233   25.6147    2.9338 C.3       12 UNK         0.0203 
     72 H72        25.2587   22.5314    4.4565 H         1 UNK         0.0888 
     73 H73        24.4336   21.2862    3.5153 H         1 UNK         0.0888 
     74 H74        26.0135   20.9516    4.2285 H         1 UNK         0.0888 
     75 H75        27.6541   20.9943    2.6897 H         1 UNK         0.3017 
     76 H76        27.3313   21.9617    0.0785 H         1 UNK         0.0873 
     77 H77        29.7383   21.4492   -0.2252 H         1 UNK         0.0745 
     78 H78        28.8564   20.1523    0.5047 H         1 UNK         0.0745 
     79 H79        32.0214   20.8743    0.3138 H         1 UNK         0.0705 
     80 H80        32.7737   20.9182    1.8813 H         1 UNK         0.0705 
     81 H81        33.3711   23.0207    2.9646 H         1 UNK         0.1334 
     82 H82        33.1779   26.6111    0.6256 H         1 UNK         0.1417 
     83 H83        31.2914   23.0334   -0.7878 H         1 UNK         0.1562 
     84 H84        31.4690   24.9141   -2.2404 H         1 UNK         0.0748 
     85 H85        32.5093   26.2609   -1.8464 H         1 UNK         0.0748 
     86 H86        29.5080   25.7606   -3.1995 H         1 UNK         0.0940 
     87 H87        30.0697   27.3974   -3.3818 H         1 UNK         0.0940 
     88 H88        27.6665   27.2264   -3.7565 H         1 UNK         0.0703 
     89 H89        27.5336   25.7726   -1.2247 H         1 UNK         0.3081 
     90 H90        23.9227   25.5306   -1.4550 H         1 UNK         0.0719 
     91 H91        24.5478   23.1589   -0.9950 H         1 UNK         0.0809 
     92 H92        24.8486   23.5925   -2.6708 H         1 UNK         0.0809 
     93 H93        26.1913   23.4745   -1.5469 H         1 UNK         0.0809 
     94 H94        25.6037   24.7129    0.6508 H         1 UNK         0.2990 
     95 H95        25.6149   27.7723    2.5056 H         1 UNK         0.0690 
     96 H96        23.4299   26.7182    3.0230 H         1 UNK         0.0788 
     97 H97        24.6356   26.2479    4.2097 H         1 UNK         0.0788 
     98 H98        24.1462   25.1164    2.9491 H         1 UNK         0.0788 
     99 H99        26.6464   25.0764    2.8677 H         1 UNK         0.2993 
    100 H100       29.9035   25.8018    1.6192 H         1 UNK         0.0949 
    101 H101       28.9337   25.4011    4.5014 H         1 UNK         0.0767 
    102 H102       30.5548   25.0597    3.8947 H         1 UNK         0.0767 
    103 H103       29.9625   26.7118    3.9369 H         1 UNK         0.0767 
    104 H104       28.8822   23.4857    2.8730 H         1 UNK         0.3013 
    105 H105       26.8566   28.1302   -0.6058 H         1 UNK         0.3121 
    106 H106       26.4320   29.9945    0.4708 H         1 UNK         0.0774 
    107 H107       26.6324   31.4763   -2.2051 H         1 UNK         0.0815 
    108 H108       25.8694   32.0684   -0.7387 H         1 UNK         0.0815 
    109 H109       25.1848   30.6863   -1.5788 H         1 UNK         0.0815 
    110 H110       28.8245   29.1135    0.9301 H         1 UNK         0.2987 
    111 H111       30.9369   31.1124    0.6438 H         1 UNK         0.0949 
    112 H112       30.7118   28.5696    2.3588 H         1 UNK         0.0806 
    113 H113       31.4710   28.6780    0.7725 H         1 UNK         0.0806 
    114 H114       32.1764   29.5143    2.1436 H         1 UNK         0.0806 
    115 H115       31.9789   32.0953    2.5001 H         1 UNK         0.3010 
    116 H116       30.2172   33.3274    4.4506 H         1 UNK         0.0829 
    117 H117       32.2107   34.5099    3.4781 H         1 UNK         0.0813 
    118 H118       32.3547   34.3846    5.2206 H         1 UNK         0.0813 
    119 H119       33.2856   33.3068    4.1894 H         1 UNK         0.0813 
    120 H120       30.6599   33.2056    6.8035 H         1 UNK         0.3038 
    121 H121       30.3763   30.6335    7.8271 H         1 UNK         0.0769 
    122 H122       31.1894   33.2075    9.2835 H         1 UNK         0.0811 
    123 H123       30.5656   31.7581   10.0582 H         1 UNK         0.0811 
    124 H124       29.5402   32.6675    8.9631 H         1 UNK         0.0811 
    125 H125       33.3814   32.3908    7.3499 H         1 UNK         0.3204 
    126 H126       35.0385   30.5773    8.9303 H         1 UNK         0.0748 
    127 H127       36.8992   31.9153    7.9456 H         1 UNK         0.0771 
    128 H128       35.7706   32.7406    6.8798 H         1 UNK         0.0771 
    129 H129       35.6691   32.9646    8.6266 H         1 UNK         0.0771 
    130 H130       33.5702   30.3550    5.8191 H         1 UNK         0.2980 
    131 H131       33.7728   29.1836    4.0555 H         1 UNK         0.0545 
    132 H132       37.1917   30.6603    3.2548 H         1 UNK         0.3459 
    133 H133       36.0473   31.1555    4.4769 H         1 UNK         0.3459 
    134 H134       35.4320   26.8885    5.0166 H         1 UNK         0.0616 
    135 H135       34.1731   27.3168    6.1251 H         1 UNK         0.0616 
    136 H136       34.8340   24.9024    3.4906 H         1 UNK         0.0634 
    137 H137       34.9157   26.2818    2.4205 H         1 UNK         0.0634 
@<TRIPOS>BOND
     1    1    2 1    
     2    1   72 1    
     3    1   73 1    
     4    1   74 1    
     5    2    3 2    
     6    2    4 am   BACKBONE|DICT|INTERRES
     7    4    5 1    
     8    4   75 1    
     9    5    6 1    
    10    5   35 1    
    11    5   76 1    
    12    6    7 1    
    13    6   77 1    
    14    6   78 1    
    15    7    8 1    
    16    8    9 1    
    17    8   79 1    
    18    8   80 1    
    19    9   10 ar   
    20    9   14 ar   
    21   10   11 ar   
    22   10   81 1    
    23   11   12 ar   
    24   11   71 1    
    25   12   13 ar   
    26   12   82 1    
    27   13   14 ar   
    28   13   15 1    
    29   14   83 1    
    30   15   16 1    
    31   15   84 1    
    32   15   85 1    
    33   16   17 1    
    34   17   18 1    
    35   17   86 1    
    36   17   87 1    
    37   18   19 1    
    38   18   37 1    
    39   18   88 1    
    40   19   20 am   BACKBONE|DICT|INTERRES
    41   19   89 1    
    42   20   21 2    
    43   20   22 1    
    44   22   23 1    
    45   22   24 1    
    46   22   90 1    
    47   23   91 1    
    48   23   92 1    
    49   23   93 1    
    50   24   25 am   BACKBONE|DICT|INTERRES
    51   24   94 1    
    52   25   26 2    
    53   25   27 1    
    54   27   28 1    
    55   27   29 1    
    56   27   95 1    
    57   28   96 1    
    58   28   97 1    
    59   28   98 1    
    60   29   30 am   BACKBONE|DICT|INTERRES
    61   29   99 1    
    62   30   31 2    
    63   30   32 1    
    64   32   33 1    
    65   32   34 1    
    66   32  100 1    
    67   33  101 1    
    68   33  102 1    
    69   33  103 1    
    70   34   35 am   BACKBONE|DICT|INTERRES
    71   34  104 1    
    72   35   36 2    
    73   37   38 2    
    74   37   39 am   BACKBONE|DICT|INTERRES
    75   39   40 1    
    76   39  105 1    
    77   40   41 1    
    78   40   42 1    
    79   40  106 1    
    80   41  107 1    
    81   41  108 1    
    82   41  109 1    
    83   42   43 2    
    84   42   44 am   BACKBONE|DICT|INTERRES
    85   44   45 1    
    86   44  110 1    
    87   45   46 1    
    88   45   47 1    
    89   45  111 1    
    90   46  112 1    
    91   46  113 1    
    92   46  114 1    
    93   47   48 2    
    94   47   49 am   BACKBONE|DICT|INTERRES
    95   49   50 1    
    96   49  115 1    
    97   50   51 1    
    98   50   52 1    
    99   50  116 1    
   100   51  117 1    
   101   51  118 1    
   102   51  119 1    
   103   52   53 2    
   104   52   54 am   BACKBONE|DICT|INTERRES
   105   54   55 1    
   106   54  120 1    
   107   55   56 1    
   108   55   57 1    
   109   55  121 1    
   110   56  122 1    
   111   56  123 1    
   112   56  124 1    
   113   57   58 2    
   114   57   59 am   BACKBONE|DICT|INTERRES
   115   59   60 1    
   116   59  125 1    
   117   60   61 1    
   118   60   62 1    
   119   60  126 1    
   120   61  127 1    
   121   61  128 1    
   122   61  129 1    
   123   62   63 2    
   124   62   64 am   BACKBONE|DICT|INTERRES
   125   64   65 1    
   126   64  130 1    
   127   65   66 1    
   128   65   69 1    
   129   65  131 1    
   130   66   67 am   BACKBONE|DICT|INTERRES
   131   66   68 2    
   132   67  132 1    
   133   67  133 1    
   134   69   70 1    
   135   69  134 1    
   136   69  135 1    
   137   70   71 1    
   138   71  136 1    
   139   71  137 1    
@<TRIPOS>SUBSTRUCTURE
     1 UNK         1 GROUP             0       ****    0 ROOT    
