@<TRIPOS>MOLECULE
3R136
137   139    1
SMALL
USER_CHARGES


@<TRIPOS>ATOM
      1 CA         32.8965   24.4291   -4.6114 C.3       0 UNK        -0.1979 
      2 C          31.8697   24.7963   -3.5506 C.2       0 UNK         0.4864 
      3 O          31.7801   25.9620   -3.1612 O.2       0 UNK        -0.5359 
      4 N          31.0911   23.8141   -3.0778 N.am      1 UNK        -0.4318 
      5 CA         30.0381   23.9889   -2.0742 C.3       1 UNK         0.0824 
      6 C6         29.7322   22.6696   -1.3143 C.3       12 UNK        -0.0944 
      7 S7         30.8299   22.4913    0.1296 S.3       12 UNK        -0.2672 
      8 C8         29.8214   23.4149    1.3300 C.3       12 UNK         0.0333 
      9 C9         30.5630   23.7395    2.6164 C.ar      12 UNK        -0.0807 
     10 C10        31.6445   24.6289    2.6141 C.ar      12 UNK        -0.0894 
     11 C11        32.2468   25.0353    3.8117 C.ar      12 UNK        -0.0804 
     12 C12        31.7605   24.5139    5.0169 C.ar      12 UNK        -0.0824 
     13 C13        30.6538   23.6631    5.0330 C.ar      12 UNK        -0.0762 
     14 C14        30.0819   23.2471    3.8303 C.ar      12 UNK        -0.0782 
     15 C15        29.9841   23.3153    6.3510 C.3       12 UNK         0.0230 
     16 S16        28.4380   24.2691    6.5528 S.3       12 UNK        -0.2608 
     17 C17        28.9978   26.0022    6.3528 C.3       12 UNK        -0.0989 
     18 CA         28.7928   26.5582    4.9141 C.3       5 UNK         0.0716 
     19 N          27.4018   26.4312    4.4594 N.am      5 UNK        -0.4135 
     20 C          26.8923   26.8875    3.3065 C.2       4 UNK         0.5031 
     21 O          27.5039   27.6059    2.5154 O.2       4 UNK        -0.5229 
     22 CA         25.4231   26.5263    3.0325 C.3       4 UNK         0.0329 
     23 CB         24.4955   27.4576    3.8318 C.3       4 UNK        -0.2001 
     24 N          25.0488   26.6038    1.6167 N.am      4 UNK        -0.4303 
     25 C          25.5658   25.8820    0.6114 C.2       3 UNK         0.5044 
     26 O          26.4628   25.0469    0.7494 O.2       3 UNK        -0.5152 
     27 CA         24.9126   26.0561   -0.7763 C.3       3 UNK         0.0319 
     28 CB         23.9163   27.2368   -0.8817 C.3       3 UNK        -0.2001 
     29 N          25.9029   26.0935   -1.8572 N.am      3 UNK        -0.4354 
     30 C          26.7929   27.0619   -2.1124 C.2       2 UNK         0.4964 
     31 O          26.8997   28.0986   -1.4565 O.2       2 UNK        -0.5047 
     32 CA         27.7338   26.8090   -3.3055 C.3       2 UNK         0.0288 
     33 CB         28.2890   28.1136   -3.9067 C.3       2 UNK        -0.2113 
     34 N          28.8505   25.9590   -2.8996 N.am      2 UNK        -0.4145 
     35 C          28.7835   24.6380   -2.6930 C.2       1 UNK         0.5006 
     36 O          27.7947   23.9540   -2.9686 O.2       1 UNK        -0.5103 
     37 C          29.3618   27.9864    4.7899 C.2       5 UNK         0.5055 
     38 O          30.3989   28.1752    4.1556 O.2       5 UNK        -0.5220 
     39 N          28.6458   28.9646    5.3603 N.am      6 UNK        -0.4450 
     40 CA         29.0261   30.3799    5.3490 C.3       6 UNK         0.0367 
     41 CB         28.3244   31.0900    6.5187 C.3       6 UNK        -0.1929 
     42 C          28.7303   31.1026    4.0198 C.2       6 UNK         0.5070 
     43 O          29.2102   32.2216    3.8346 O.2       6 UNK        -0.5237 
     44 N          27.9354   30.4884    3.1324 N.am      7 UNK        -0.4739 
     45 CA         27.6457   31.0107    1.7948 C.3       7 UNK         0.0276 
     46 CB         26.2399   30.5660    1.3544 C.3       7 UNK        -0.1927 
     47 C          28.7049   30.5474    0.7838 C.2       7 UNK         0.5013 
     48 O          29.1094   31.3359   -0.0715 O.2       7 UNK        -0.5193 
     49 N          29.1297   29.2828    0.9072 N.am      8 UNK        -0.4253 
     50 CA         30.0975   28.6215    0.0361 C.3       8 UNK         0.0242 
     51 CB         30.1353   27.1258    0.3775 C.3       8 UNK        -0.2000 
     52 C          31.5072   29.2267    0.1012 C.2       8 UNK         0.4948 
     53 O          32.1175   29.4414   -0.9471 O.2       8 UNK        -0.5275 
     54 N          31.9998   29.4880    1.3170 N.am      9 UNK        -0.4246 
     55 CA         33.3159   30.0640    1.5869 C.3       9 UNK         0.0261 
     56 CB         34.4270   29.0150    1.3567 C.3       9 UNK        -0.1959 
     57 C          33.3307   30.6137    3.0183 C.2       9 UNK         0.5033 
     58 O          32.3044   30.5888    3.7002 O.2       9 UNK        -0.5390 
     59 N          34.5004   31.0764    3.4753 N.am      10 UNK        -0.4215 
     60 CA         34.7373   31.6351    4.8119 C.3       10 UNK         0.0240 
     61 CB         36.0233   32.4833    4.7711 C.3       10 UNK        -0.1982 
     62 C          34.7578   30.5849    5.9487 C.2       10 UNK         0.4970 
     63 O          35.5580   30.7125    6.8774 O.2       10 UNK        -0.4916 
     64 N          33.8779   29.5789    5.8752 N.am      11 UNK        -0.4279 
     65 CA         33.6471   28.5869    6.9361 C.3       11 UNK         0.1003 
     66 C          32.7168   29.1017    8.0749 C.2       11 UNK         0.5709 
     67 N          32.0654   30.2522    7.9421 N.am      11 UNK        -0.7358 
     68 O          32.5926   28.4473    9.1072 O.2       11 UNK        -0.4999 
     69 C69        33.1309   27.2372    6.3742 C.3       12 UNK        -0.0954 
     70 S70        34.3181   26.3875    5.2742 S.3       12 UNK        -0.2268 
     71 C71        33.3406   26.1081    3.7504 C.3       12 UNK         0.0203 
     72 H72        32.7083   24.9916   -5.5255 H         1 UNK         0.0888 
     73 H73        33.8994   24.6721   -4.2615 H         1 UNK         0.0888 
     74 H74        32.8701   23.3670   -4.8545 H         1 UNK         0.0888 
     75 H75        31.1954   22.8789   -3.4449 H         1 UNK         0.3017 
     76 H76        30.4007   24.7109   -1.3420 H         1 UNK         0.0873 
     77 H77        28.7026   22.6330   -0.9511 H         1 UNK         0.0745 
     78 H78        29.8428   21.8009   -1.9655 H         1 UNK         0.0745 
     79 H79        29.4824   24.3507    0.8858 H         1 UNK         0.0705 
     80 H80        28.9167   22.8411    1.5382 H         1 UNK         0.0705 
     81 H81        31.9898   25.0398    1.6753 H         1 UNK         0.1334 
     82 H82        32.1822   24.8194    5.9599 H         1 UNK         0.1417 
     83 H83        29.2089   22.6086    3.8493 H         1 UNK         0.1562 
     84 H84        30.6467   23.5158    7.1944 H         1 UNK         0.0748 
     85 H85        29.7575   22.2485    6.3807 H         1 UNK         0.0748 
     86 H86        30.0448   26.0750    6.6520 H         1 UNK         0.0940 
     87 H87        28.4462   26.6077    7.0744 H         1 UNK         0.0940 
     88 H88        29.3764   25.9506    4.2239 H         1 UNK         0.0703 
     89 H89        26.8140   25.8601    5.0494 H         1 UNK         0.3081 
     90 H90        25.2598   25.4968    3.3577 H         1 UNK         0.0719 
     91 H91        24.7020   27.4022    4.9015 H         1 UNK         0.0809 
     92 H92        24.6156   28.4996    3.5311 H         1 UNK         0.0809 
     93 H93        23.4479   27.1879    3.6958 H         1 UNK         0.0809 
     94 H94        24.3286   27.2710    1.3851 H         1 UNK         0.2990 
     95 H95        24.3397   25.1425   -0.9411 H         1 UNK         0.0690 
     96 H96        23.0672   27.1018   -0.2107 H         1 UNK         0.0788 
     97 H97        23.5088   27.3147   -1.8898 H         1 UNK         0.0788 
     98 H98        24.3821   28.1935   -0.6416 H         1 UNK         0.0788 
     99 H99        25.9814   25.2420   -2.4001 H         1 UNK         0.2993 
    100 H100       27.1641   26.3006   -4.0869 H         1 UNK         0.0949 
    101 H101       28.8959   27.9143   -4.7902 H         1 UNK         0.0767 
    102 H102       27.4782   28.7760   -4.2127 H         1 UNK         0.0767 
    103 H103       28.9065   28.6626   -3.1956 H         1 UNK         0.0767 
    104 H104       29.7370   26.4185   -2.7236 H         1 UNK         0.3013 
    105 H105       27.7856   28.7271    5.8328 H         1 UNK         0.3121 
    106 H106       30.1044   30.4464    5.5114 H         1 UNK         0.0774 
    107 H107       28.6164   32.1399    6.5698 H         1 UNK         0.0815 
    108 H108       27.2389   31.0588    6.4179 H         1 UNK         0.0815 
    109 H109       28.5891   30.6370    7.4743 H         1 UNK         0.0815 
    110 H110       27.6348   29.5396    3.3195 H         1 UNK         0.2987 
    111 H111       27.6581   32.1029    1.8182 H         1 UNK         0.0949 
    112 H112       26.1663   29.4832    1.2501 H         1 UNK         0.0806 
    113 H113       25.4787   30.8893    2.0643 H         1 UNK         0.0806 
    114 H114       25.9856   30.9969    0.3851 H         1 UNK         0.0806 
    115 H115       28.6731   28.6941    1.6012 H         1 UNK         0.3010 
    116 H116       29.7415   28.7282   -0.9896 H         1 UNK         0.0829 
    117 H117       30.9123   26.6154   -0.1918 H         1 UNK         0.0813 
    118 H118       30.3417   26.9640    1.4364 H         1 UNK         0.0813 
    119 H119       29.1811   26.6497    0.1492 H         1 UNK         0.0813 
    120 H120       31.4256   29.3427    2.1426 H         1 UNK         0.3038 
    121 H121       33.4686   30.9076    0.9107 H         1 UNK         0.0769 
    122 H122       34.3858   28.2138    2.0927 H         1 UNK         0.0811 
    123 H123       35.4184   29.4636    1.4214 H         1 UNK         0.0811 
    124 H124       34.3567   28.5604    0.3687 H         1 UNK         0.0811 
    125 H125       35.3041   31.0315    2.8656 H         1 UNK         0.3204 
    126 H126       33.9101   32.3108    5.0396 H         1 UNK         0.0748 
    127 H127       36.1866   32.9991    5.7185 H         1 UNK         0.0771 
    128 H128       36.9041   31.8700    4.5768 H         1 UNK         0.0771 
    129 H129       35.9697   33.2502    3.9980 H         1 UNK         0.0771 
    130 H130       33.2119   29.5877    5.1088 H         1 UNK         0.2980 
    131 H131       34.6056   28.3825    7.4169 H         1 UNK         0.0545 
    132 H132       31.4775   30.5730    8.6946 H         1 UNK         0.3459 
    133 H133       32.1615   30.8016    7.1043 H         1 UNK         0.3459 
    134 H134       32.9201   26.5510    7.1962 H         1 UNK         0.0616 
    135 H135       32.1867   27.3844    5.8517 H         1 UNK         0.0616 
    136 H136       32.8766   27.0517    3.4603 H         1 UNK         0.0634 
    137 H137       34.0399   25.8478    2.9547 H         1 UNK         0.0634 
@<TRIPOS>BOND
     1    1    2 1    
     2    1   72 1    
     3    1   73 1    
     4    1   74 1    
     5    2    3 2    
     6    2    4 am   BACKBONE|DICT|INTERRES
     7    4    5 1    
     8    4   75 1    
     9    5    6 1    
    10    5   35 1    
    11    5   76 1    
    12    6    7 1    
    13    6   77 1    
    14    6   78 1    
    15    7    8 1    
    16    8    9 1    
    17    8   79 1    
    18    8   80 1    
    19    9   10 ar   
    20    9   14 ar   
    21   10   11 ar   
    22   10   81 1    
    23   11   12 ar   
    24   11   71 1    
    25   12   13 ar   
    26   12   82 1    
    27   13   14 ar   
    28   13   15 1    
    29   14   83 1    
    30   15   16 1    
    31   15   84 1    
    32   15   85 1    
    33   16   17 1    
    34   17   18 1    
    35   17   86 1    
    36   17   87 1    
    37   18   19 1    
    38   18   37 1    
    39   18   88 1    
    40   19   20 am   BACKBONE|DICT|INTERRES
    41   19   89 1    
    42   20   21 2    
    43   20   22 1    
    44   22   23 1    
    45   22   24 1    
    46   22   90 1    
    47   23   91 1    
    48   23   92 1    
    49   23   93 1    
    50   24   25 am   BACKBONE|DICT|INTERRES
    51   24   94 1    
    52   25   26 2    
    53   25   27 1    
    54   27   28 1    
    55   27   29 1    
    56   27   95 1    
    57   28   96 1    
    58   28   97 1    
    59   28   98 1    
    60   29   30 am   BACKBONE|DICT|INTERRES
    61   29   99 1    
    62   30   31 2    
    63   30   32 1    
    64   32   33 1    
    65   32   34 1    
    66   32  100 1    
    67   33  101 1    
    68   33  102 1    
    69   33  103 1    
    70   34   35 am   BACKBONE|DICT|INTERRES
    71   34  104 1    
    72   35   36 2    
    73   37   38 2    
    74   37   39 am   BACKBONE|DICT|INTERRES
    75   39   40 1    
    76   39  105 1    
    77   40   41 1    
    78   40   42 1    
    79   40  106 1    
    80   41  107 1    
    81   41  108 1    
    82   41  109 1    
    83   42   43 2    
    84   42   44 am   BACKBONE|DICT|INTERRES
    85   44   45 1    
    86   44  110 1    
    87   45   46 1    
    88   45   47 1    
    89   45  111 1    
    90   46  112 1    
    91   46  113 1    
    92   46  114 1    
    93   47   48 2    
    94   47   49 am   BACKBONE|DICT|INTERRES
    95   49   50 1    
    96   49  115 1    
    97   50   51 1    
    98   50   52 1    
    99   50  116 1    
   100   51  117 1    
   101   51  118 1    
   102   51  119 1    
   103   52   53 2    
   104   52   54 am   BACKBONE|DICT|INTERRES
   105   54   55 1    
   106   54  120 1    
   107   55   56 1    
   108   55   57 1    
   109   55  121 1    
   110   56  122 1    
   111   56  123 1    
   112   56  124 1    
   113   57   58 2    
   114   57   59 am   BACKBONE|DICT|INTERRES
   115   59   60 1    
   116   59  125 1    
   117   60   61 1    
   118   60   62 1    
   119   60  126 1    
   120   61  127 1    
   121   61  128 1    
   122   61  129 1    
   123   62   63 2    
   124   62   64 am   BACKBONE|DICT|INTERRES
   125   64   65 1    
   126   64  130 1    
   127   65   66 1    
   128   65   69 1    
   129   65  131 1    
   130   66   67 am   BACKBONE|DICT|INTERRES
   131   66   68 2    
   132   67  132 1    
   133   67  133 1    
   134   69   70 1    
   135   69  134 1    
   136   69  135 1    
   137   70   71 1    
   138   71  136 1    
   139   71  137 1    
@<TRIPOS>SUBSTRUCTURE
     1 UNK         1 GROUP             0       ****    0 ROOT    
