@<TRIPOS>MOLECULE
3R136
137   139    1
SMALL
USER_CHARGES


@<TRIPOS>ATOM
      1 CA         31.9511   19.8140    3.3481 C.3       0 UNK        -0.1979 
      2 C          30.6830   19.8848    2.5101 C.2       0 UNK         0.4864 
      3 O          30.0288   18.8615    2.3020 O.2       0 UNK        -0.5359 
      4 N          30.3348   21.0825    2.0235 N.am      1 UNK        -0.4318 
      5 CA         29.1208   21.3471    1.2471 C.3       1 UNK         0.0824 
      6 C6         29.2021   22.6932    0.4846 C.3       12 UNK        -0.0944 
      7 S7         30.4556   22.6707   -0.8345 S.3       12 UNK        -0.2672 
      8 C8         31.8093   23.6414   -0.0878 C.3       12 UNK         0.0333 
      9 C9         31.6423   25.1574   -0.1893 C.ar      12 UNK        -0.0807 
     10 C10        32.0530   25.9689    0.8755 C.ar      12 UNK        -0.0894 
     11 C11        32.0514   27.3618    0.7517 C.ar      12 UNK        -0.0804 
     12 C12        31.6142   27.9448   -0.4403 C.ar      12 UNK        -0.0824 
     13 C13        31.1733   27.1520   -1.5031 C.ar      12 UNK        -0.0762 
     14 C14        31.1912   25.7595   -1.3716 C.ar      12 UNK        -0.0782 
     15 C15        30.7549   27.7948   -2.8203 C.3       12 UNK         0.0230 
     16 S16        28.9581   28.0780   -2.9302 S.3       12 UNK        -0.2608 
     17 C17        28.7200   29.4941   -1.7990 C.3       12 UNK        -0.0989 
     18 CA         27.7000   29.2096   -0.6659 C.3       5 UNK         0.0716 
     19 N          27.9611   27.9309    0.0049 N.am      5 UNK        -0.4135 
     20 C          27.0710   27.2734    0.7562 C.2       4 UNK         0.5031 
     21 O          25.9967   27.7500    1.1308 O.2       4 UNK        -0.5229 
     22 CA         27.4609   25.8405    1.1571 C.3       4 UNK         0.0329 
     23 CB         28.3155   25.8461    2.4319 C.3       4 UNK        -0.2001 
     24 N          26.2909   24.9874    1.3738 N.am      4 UNK        -0.4303 
     25 C          25.4366   24.6010    0.4173 C.2       3 UNK         0.5044 
     26 O          25.5717   24.8690   -0.7780 O.2       3 UNK        -0.5152 
     27 CA         24.2900   23.6935    0.8803 C.3       3 UNK         0.0319 
     28 CB         23.1965   23.5067   -0.1887 C.3       3 UNK        -0.2001 
     29 N          24.8741   22.3974    1.2070 N.am      3 UNK        -0.4354 
     30 C          24.7429   21.7461    2.3685 C.2       2 UNK         0.4964 
     31 O          24.0154   22.1160    3.2904 O.2       2 UNK        -0.5047 
     32 CA         25.5911   20.4722    2.5356 C.3       2 UNK         0.0288 
     33 CB         24.8077   19.2358    2.0649 C.3       2 UNK        -0.2113 
     34 N          26.8700   20.5428    1.8177 N.am      2 UNK        -0.4145 
     35 C          27.8936   21.3310    2.1779 C.2       1 UNK         0.5006 
     36 O          27.8869   22.0492    3.1808 O.2       1 UNK        -0.5103 
     37 C          27.6212   30.4201    0.2898 C.2       5 UNK         0.5055 
     38 O          27.0647   31.4460   -0.1041 O.2       5 UNK        -0.5220 
     39 N          28.2082   30.3008    1.4932 N.am      6 UNK        -0.4450 
     40 CA         28.3987   31.3622    2.4971 C.3       6 UNK         0.0367 
     41 CB         27.0477   31.8456    3.0647 C.3       6 UNK        -0.1929 
     42 C          29.2876   32.5158    1.9812 C.2       6 UNK         0.5070 
     43 O          29.0810   33.6738    2.3468 O.2       6 UNK        -0.5237 
     44 N          30.2530   32.1722    1.1183 N.am      7 UNK        -0.4739 
     45 CA         31.1248   33.1078    0.4054 C.3       7 UNK         0.0276 
     46 CB         31.4363   32.5156   -0.9803 C.3       7 UNK        -0.1927 
     47 C          32.4307   33.4281    1.1532 C.2       7 UNK         0.5013 
     48 O          33.1386   34.3483    0.7410 O.2       7 UNK        -0.5193 
     49 N          32.7478   32.6706    2.2091 N.am      8 UNK        -0.4253 
     50 CA         33.9680   32.7988    3.0013 C.3       8 UNK         0.0242 
     51 CB         35.0745   31.9289    2.3757 C.3       8 UNK        -0.2000 
     52 C          33.6820   32.3614    4.4393 C.2       8 UNK         0.4948 
     53 O          32.6830   31.6815    4.6847 O.2       8 UNK        -0.5275 
     54 N          34.5935   32.7000    5.3615 N.am      9 UNK        -0.4246 
     55 CA         34.5232   32.3664    6.7929 C.3       9 UNK         0.0261 
     56 CB         35.7080   33.0231    7.5206 C.3       9 UNK        -0.1959 
     57 C          34.4683   30.8570    7.1088 C.2       9 UNK         0.5033 
     58 O          34.0363   30.4855    8.2006 O.2       9 UNK        -0.5390 
     59 N          34.8792   30.0184    6.1479 N.am      10 UNK        -0.4215 
     60 CA         34.7517   28.5608    6.1781 C.3       10 UNK         0.0240 
     61 CB         35.5992   27.9675    5.0398 C.3       10 UNK        -0.1982 
     62 C          33.2979   28.0551    6.0782 C.2       10 UNK         0.4970 
     63 O          33.0550   26.9017    6.4363 O.2       10 UNK        -0.4916 
     64 N          32.3723   28.8923    5.5913 N.am      11 UNK        -0.4279 
     65 CA         30.9552   28.5545    5.3907 C.3       11 UNK         0.1003 
     66 C          29.9618   29.6543    5.8571 C.2       11 UNK         0.5709 
     67 N          30.3559   30.9154    5.9705 N.am      11 UNK        -0.7358 
     68 O          28.8065   29.3495    6.1425 O.2       11 UNK        -0.4999 
     69 C69        30.6663   28.0785    3.9420 C.3       12 UNK        -0.0954 
     70 S70        31.2716   29.2203    2.6512 S.3       12 UNK        -0.2268 
     71 C71        32.5896   28.2463    1.8679 C.3       12 UNK         0.0203 
     72 H72        32.6617   19.1231    2.8954 H         1 UNK         0.0888 
     73 H73        32.4351   20.7863    3.4390 H         1 UNK         0.0888 
     74 H74        31.7185   19.4560    4.3507 H         1 UNK         0.0888 
     75 H75        30.8879   21.8923    2.2592 H         1 UNK         0.3017 
     76 H76        29.0079   20.5469    0.5117 H         1 UNK         0.0873 
     77 H77        28.2461   22.9251    0.0112 H         1 UNK         0.0745 
     78 H78        29.4139   23.5146    1.1686 H         1 UNK         0.0745 
     79 H79        31.9389   23.3347    0.9507 H         1 UNK         0.0705 
     80 H80        32.7355   23.3744   -0.5980 H         1 UNK         0.0705 
     81 H81        32.4231   25.5161    1.7853 H         1 UNK         0.1334 
     82 H82        31.6483   29.0198   -0.5445 H         1 UNK         0.1417 
     83 H83        30.8914   25.1435   -2.2086 H         1 UNK         0.1562 
     84 H84        31.0540   27.1513   -3.6491 H         1 UNK         0.0748 
     85 H85        31.2830   28.7377   -2.9719 H         1 UNK         0.0748 
     86 H86        28.3797   30.3398   -2.4002 H         1 UNK         0.0940 
     87 H87        29.6806   29.8013   -1.3870 H         1 UNK         0.0940 
     88 H88        26.7157   29.1233   -1.1319 H         1 UNK         0.0703 
     89 H89        28.8170   27.4648   -0.2630 H         1 UNK         0.3081 
     90 H90        28.0444   25.4032    0.3442 H         1 UNK         0.0719 
     91 H91        27.8479   26.4269    3.2282 H         1 UNK         0.0809 
     92 H92        28.4831   24.8403    2.8165 H         1 UNK         0.0809 
     93 H93        29.2950   26.2765    2.2258 H         1 UNK         0.0809 
     94 H94        26.1011   24.7152    2.3275 H         1 UNK         0.2990 
     95 H95        23.8374   24.1547    1.7609 H         1 UNK         0.0690 
     96 H96        22.3841   22.8831    0.1845 H         1 UNK         0.0788 
     97 H97        23.5872   23.0390   -1.0934 H         1 UNK         0.0788 
     98 H98        22.7645   24.4663   -0.4756 H         1 UNK         0.0788 
     99 H99        25.5085   22.0190    0.5181 H         1 UNK         0.2993 
    100 H100       25.8041   20.3577    3.6010 H         1 UNK         0.0949 
    101 H101       25.3684   18.3185    2.2460 H         1 UNK         0.0767 
    102 H102       23.8620   19.1465    2.6017 H         1 UNK         0.0767 
    103 H103       24.5747   19.2837    1.0003 H         1 UNK         0.0767 
    104 H104       26.9630   19.9604    0.9973 H         1 UNK         0.3013 
    105 H105       28.6358   29.4125    1.7139 H         1 UNK         0.3121 
    106 H106       28.9463   30.9101    3.3235 H         1 UNK         0.0774 
    107 H107       27.1993   32.5196    3.9086 H         1 UNK         0.0815 
    108 H108       26.4627   32.3858    2.3200 H         1 UNK         0.0815 
    109 H109       26.4476   31.0095    3.4234 H         1 UNK         0.0815 
    110 H110       30.3718   31.1922    0.9089 H         1 UNK         0.2987 
    111 H111       30.5961   34.0527    0.2603 H         1 UNK         0.0949 
    112 H112       31.9806   31.5736   -0.9055 H         1 UNK         0.0806 
    113 H113       30.5238   32.3351   -1.5489 H         1 UNK         0.0806 
    114 H114       32.0502   33.1992   -1.5685 H         1 UNK         0.0806 
    115 H115       32.0913   31.9775    2.5465 H         1 UNK         0.3010 
    116 H116       34.2852   33.8437    3.0230 H         1 UNK         0.0829 
    117 H117       35.2831   32.2323    1.3496 H         1 UNK         0.0813 
    118 H118       36.0098   32.0138    2.9300 H         1 UNK         0.0813 
    119 H119       34.7959   30.8743    2.3600 H         1 UNK         0.0813 
    120 H120       35.3918   33.2469    5.0706 H         1 UNK         0.3038 
    121 H121       33.6002   32.8024    7.1809 H         1 UNK         0.0769 
    122 H122       36.6647   32.6491    7.1539 H         1 UNK         0.0811 
    123 H123       35.6692   32.8217    8.5923 H         1 UNK         0.0811 
    124 H124       35.6997   34.1064    7.3982 H         1 UNK         0.0811 
    125 H125       35.2319   30.4237    5.2940 H         1 UNK         0.3204 
    126 H126       35.1547   28.2065    7.1292 H         1 UNK         0.0748 
    127 H127       36.6488   28.2448    5.1394 H         1 UNK         0.0771 
    128 H128       35.5532   26.8774    5.0449 H         1 UNK         0.0771 
    129 H129       35.2532   28.3031    4.0612 H         1 UNK         0.0771 
    130 H130       32.6372   29.8308    5.3120 H         1 UNK         0.2980 
    131 H131       30.7189   27.7119    6.0434 H         1 UNK         0.0545 
    132 H132       29.6979   31.6038    6.2967 H         1 UNK         0.3459 
    133 H133       31.2654   31.2126    5.6248 H         1 UNK         0.3459 
    134 H134       29.5940   27.9484    3.7999 H         1 UNK         0.0616 
    135 H135       31.1083   27.0933    3.7885 H         1 UNK         0.0616 
    136 H136       33.3243   28.9351    1.4489 H         1 UNK         0.0634 
    137 H137       33.1189   27.6615    2.6218 H         1 UNK         0.0634 
@<TRIPOS>BOND
     1    1    2 1    
     2    1   72 1    
     3    1   73 1    
     4    1   74 1    
     5    2    3 2    
     6    2    4 am   BACKBONE|DICT|INTERRES
     7    4    5 1    
     8    4   75 1    
     9    5    6 1    
    10    5   35 1    
    11    5   76 1    
    12    6    7 1    
    13    6   77 1    
    14    6   78 1    
    15    7    8 1    
    16    8    9 1    
    17    8   79 1    
    18    8   80 1    
    19    9   10 ar   
    20    9   14 ar   
    21   10   11 ar   
    22   10   81 1    
    23   11   12 ar   
    24   11   71 1    
    25   12   13 ar   
    26   12   82 1    
    27   13   14 ar   
    28   13   15 1    
    29   14   83 1    
    30   15   16 1    
    31   15   84 1    
    32   15   85 1    
    33   16   17 1    
    34   17   18 1    
    35   17   86 1    
    36   17   87 1    
    37   18   19 1    
    38   18   37 1    
    39   18   88 1    
    40   19   20 am   BACKBONE|DICT|INTERRES
    41   19   89 1    
    42   20   21 2    
    43   20   22 1    
    44   22   23 1    
    45   22   24 1    
    46   22   90 1    
    47   23   91 1    
    48   23   92 1    
    49   23   93 1    
    50   24   25 am   BACKBONE|DICT|INTERRES
    51   24   94 1    
    52   25   26 2    
    53   25   27 1    
    54   27   28 1    
    55   27   29 1    
    56   27   95 1    
    57   28   96 1    
    58   28   97 1    
    59   28   98 1    
    60   29   30 am   BACKBONE|DICT|INTERRES
    61   29   99 1    
    62   30   31 2    
    63   30   32 1    
    64   32   33 1    
    65   32   34 1    
    66   32  100 1    
    67   33  101 1    
    68   33  102 1    
    69   33  103 1    
    70   34   35 am   BACKBONE|DICT|INTERRES
    71   34  104 1    
    72   35   36 2    
    73   37   38 2    
    74   37   39 am   BACKBONE|DICT|INTERRES
    75   39   40 1    
    76   39  105 1    
    77   40   41 1    
    78   40   42 1    
    79   40  106 1    
    80   41  107 1    
    81   41  108 1    
    82   41  109 1    
    83   42   43 2    
    84   42   44 am   BACKBONE|DICT|INTERRES
    85   44   45 1    
    86   44  110 1    
    87   45   46 1    
    88   45   47 1    
    89   45  111 1    
    90   46  112 1    
    91   46  113 1    
    92   46  114 1    
    93   47   48 2    
    94   47   49 am   BACKBONE|DICT|INTERRES
    95   49   50 1    
    96   49  115 1    
    97   50   51 1    
    98   50   52 1    
    99   50  116 1    
   100   51  117 1    
   101   51  118 1    
   102   51  119 1    
   103   52   53 2    
   104   52   54 am   BACKBONE|DICT|INTERRES
   105   54   55 1    
   106   54  120 1    
   107   55   56 1    
   108   55   57 1    
   109   55  121 1    
   110   56  122 1    
   111   56  123 1    
   112   56  124 1    
   113   57   58 2    
   114   57   59 am   BACKBONE|DICT|INTERRES
   115   59   60 1    
   116   59  125 1    
   117   60   61 1    
   118   60   62 1    
   119   60  126 1    
   120   61  127 1    
   121   61  128 1    
   122   61  129 1    
   123   62   63 2    
   124   62   64 am   BACKBONE|DICT|INTERRES
   125   64   65 1    
   126   64  130 1    
   127   65   66 1    
   128   65   69 1    
   129   65  131 1    
   130   66   67 am   BACKBONE|DICT|INTERRES
   131   66   68 2    
   132   67  132 1    
   133   67  133 1    
   134   69   70 1    
   135   69  134 1    
   136   69  135 1    
   137   70   71 1    
   138   71  136 1    
   139   71  137 1    
@<TRIPOS>SUBSTRUCTURE
     1 UNK         1 GROUP             0       ****    0 ROOT    
