@<TRIPOS>MOLECULE
3R136
137   139    1
SMALL
USER_CHARGES


@<TRIPOS>ATOM
      1 CA         26.1474   19.6154   -1.5434 C.3       0 UNK        -0.1979 
      2 C          27.0946   20.7956   -1.3799 C.2       0 UNK         0.4864 
      3 O          26.7166   21.7943   -0.7666 O.2       0 UNK        -0.5359 
      4 N          28.3173   20.6749   -1.9186 N.am      1 UNK        -0.4318 
      5 CA         29.3805   21.6900   -1.9365 C.3       1 UNK         0.0824 
      6 C6         29.7880   22.1628   -0.5103 C.3       12 UNK        -0.0944 
      7 S7         31.5419   22.6654   -0.3859 S.3       12 UNK        -0.2672 
      8 C8         31.4176   24.2973    0.4207 C.3       12 UNK         0.0333 
      9 C9         31.4346   24.2155    1.9444 C.ar      12 UNK        -0.0807 
     10 C10        32.3790   24.9482    2.6707 C.ar      12 UNK        -0.0894 
     11 C11        32.3691   24.9383    4.0681 C.ar      12 UNK        -0.0804 
     12 C12        31.4361   24.1509    4.7465 C.ar      12 UNK        -0.0824 
     13 C13        30.4912   23.4079    4.0345 C.ar      12 UNK        -0.0762 
     14 C14        30.4878   23.4536    2.6376 C.ar      12 UNK        -0.0782 
     15 C15        29.4576   22.5703    4.7695 C.3       12 UNK         0.0230 
     16 S16        27.8223   23.3660    4.7496 S.3       12 UNK        -0.2608 
     17 C17        28.0974   24.8191    5.8228 C.3       12 UNK        -0.0989 
     18 CA         28.3423   26.1443    5.0450 C.3       5 UNK         0.0716 
     19 N          27.3042   26.3607    4.0283 N.am      5 UNK        -0.4135 
     20 C          27.3562   27.1872    2.9769 C.2       4 UNK         0.5031 
     21 O          28.2475   28.0180    2.7859 O.2       4 UNK        -0.5229 
     22 CA         26.1811   27.0879    1.9882 C.3       4 UNK         0.0329 
     23 CB         25.0675   28.0724    2.3817 C.3       4 UNK        -0.2001 
     24 N          26.5883   27.3498    0.6047 N.am      4 UNK        -0.4303 
     25 C          27.4570   26.6060   -0.0940 C.2       3 UNK         0.5044 
     26 O          27.9774   25.5694    0.3279 O.2       3 UNK        -0.5152 
     27 CA         27.7937   27.1020   -1.5078 C.3       3 UNK         0.0319 
     28 CB         28.4855   28.4802   -1.4782 C.3       3 UNK        -0.2001 
     29 N          28.6600   26.1199   -2.1532 N.am      3 UNK        -0.4354 
     30 C          28.9407   26.0451   -3.4587 C.2       2 UNK         0.4964 
     31 O          28.4615   26.7989   -4.3067 O.2       2 UNK        -0.5047 
     32 CA         29.9406   24.9624   -3.9024 C.3       2 UNK         0.0288 
     33 CB         31.3495   25.5645   -4.0355 C.3       2 UNK        -0.2113 
     34 N          30.0039   23.8074   -3.0026 N.am      2 UNK        -0.4145 
     35 C          29.0689   22.8533   -2.9104 C.2       1 UNK         0.5006 
     36 O          28.0383   22.8524   -3.5901 O.2       1 UNK        -0.5103 
     37 C          28.5037   27.3447    6.0105 C.2       5 UNK         0.5055 
     38 O          28.3752   27.1801    7.2261 O.2       5 UNK        -0.5220 
     39 N          28.7535   28.5351    5.4618 N.am      6 UNK        -0.4450 
     40 CA         28.9001   29.8004    6.1720 C.3       6 UNK         0.0367 
     41 CB         27.5122   30.3364    6.5927 C.3       6 UNK        -0.1929 
     42 C          29.6938   30.7736    5.2873 C.2       6 UNK         0.5070 
     43 O          30.5232   30.3377    4.4841 O.2       6 UNK        -0.5237 
     44 N          29.4281   32.0797    5.4312 N.am      7 UNK        -0.4739 
     45 CA         30.0935   33.1722    4.7112 C.3       7 UNK         0.0276 
     46 CB         29.5439   34.5179    5.2090 C.3       7 UNK        -0.1927 
     47 C          29.9856   33.0810    3.1786 C.2       7 UNK         0.5013 
     48 O          30.8900   33.5487    2.4880 O.2       7 UNK        -0.5193 
     49 N          28.9264   32.4282    2.6780 N.am      8 UNK        -0.4253 
     50 CA         28.7174   32.1074    1.2629 C.3       8 UNK         0.0242 
     51 CB         27.3459   31.4338    1.0962 C.3       8 UNK        -0.2000 
     52 C          29.8264   31.2232    0.6596 C.2       8 UNK         0.4948 
     53 O          30.1475   31.3904   -0.5170 O.2       8 UNK        -0.5275 
     54 N          30.4064   30.3313    1.4752 N.am      9 UNK        -0.4246 
     55 CA         31.5536   29.4899    1.1268 C.3       9 UNK         0.0261 
     56 CB         31.2482   28.0398    1.5346 C.3       9 UNK        -0.1959 
     57 C          32.8546   29.9886    1.7870 C.2       9 UNK         0.5033 
     58 O          33.8573   29.2740    1.7436 O.2       9 UNK        -0.5390 
     59 N          32.8234   31.1948    2.3768 N.am      10 UNK        -0.4215 
     60 CA         33.9038   31.8691    3.1040 C.3       10 UNK         0.0240 
     61 CB         35.0444   32.2668    2.1421 C.3       10 UNK        -0.1982 
     62 C          34.3958   31.0876    4.3395 C.2       10 UNK         0.4970 
     63 O          35.6013   31.0496    4.5960 O.2       10 UNK        -0.4916 
     64 N          33.4613   30.4968    5.0931 N.am      11 UNK        -0.4279 
     65 CA         33.7305   29.7489    6.3289 C.3       11 UNK         0.1003 
     66 C          32.6931   30.0761    7.4400 C.2       11 UNK         0.5709 
     67 N          32.5034   29.2047    8.4219 N.am      11 UNK        -0.7358 
     68 O          32.0912   31.1480    7.4550 O.2       11 UNK        -0.4999 
     69 C69        33.9787   28.2383    6.0547 C.3       12 UNK        -0.0954 
     70 S70        32.5570   27.3797    5.3053 S.3       12 UNK        -0.2268 
     71 C71        33.3425   25.8072    4.8443 C.3       12 UNK         0.0203 
     72 H72        26.6089   18.7929   -2.0896 H         1 UNK         0.0888 
     73 H73        25.8401   19.2429   -0.5666 H         1 UNK         0.0888 
     74 H74        25.2549   19.9243   -2.0870 H         1 UNK         0.0888 
     75 H75        28.5360   19.8297   -2.4277 H         1 UNK         0.3017 
     76 H76        30.2353   21.1692   -2.3715 H         1 UNK         0.0873 
     77 H77        29.1269   22.9604   -0.1655 H         1 UNK         0.0745 
     78 H78        29.6563   21.3451    0.2002 H         1 UNK         0.0745 
     79 H79        32.2546   24.9027    0.0693 H         1 UNK         0.0705 
     80 H80        30.5179   24.8184    0.0950 H         1 UNK         0.0705 
     81 H81        33.1080   25.5549    2.1516 H         1 UNK         0.1334 
     82 H82        31.4297   24.1409    5.8279 H         1 UNK         0.1417 
     83 H83        29.7352   22.8999    2.0968 H         1 UNK         0.1562 
     84 H84        29.7636   22.3829    5.8000 H         1 UNK         0.0748 
     85 H85        29.3799   21.5922    4.2924 H         1 UNK         0.0748 
     86 H86        27.2169   24.9137    6.4617 H         1 UNK         0.0940 
     87 H87        28.9306   24.6145    6.4977 H         1 UNK         0.0940 
     88 H88        29.2924   26.0504    4.5149 H         1 UNK         0.0703 
     89 H89        26.5131   25.7381    4.1007 H         1 UNK         0.3081 
     90 H90        25.7801   26.0727    2.0248 H         1 UNK         0.0719 
     91 H91        24.7142   27.8795    3.3957 H         1 UNK         0.0809 
     92 H92        25.4115   29.1067    2.3506 H         1 UNK         0.0809 
     93 H93        24.2060   27.9845    1.7195 H         1 UNK         0.0809 
     94 H94        26.2243   28.1908    0.1829 H         1 UNK         0.2990 
     95 H95        26.8600   27.1714   -2.0696 H         1 UNK         0.0690 
     96 H96        28.6706   28.8587   -2.4833 H         1 UNK         0.0788 
     97 H97        29.4439   28.4380   -0.9617 H         1 UNK         0.0788 
     98 H98        27.8740   29.2251   -0.9710 H         1 UNK         0.0788 
     99 H99        29.0282   25.4244   -1.5168 H         1 UNK         0.2993 
    100 H100       29.6236   24.6118   -4.8873 H         1 UNK         0.0949 
    101 H101       32.0582   24.8347   -4.4277 H         1 UNK         0.0767 
    102 H102       31.3484   26.4130   -4.7214 H         1 UNK         0.0767 
    103 H103       31.7289   25.9211   -3.0768 H         1 UNK         0.0767 
    104 H104       30.8276   23.7222   -2.4213 H         1 UNK         0.3013 
    105 H105       28.8594   28.5792    4.4485 H         1 UNK         0.3121 
    106 H106       29.5017   29.6285    7.0668 H         1 UNK         0.0774 
    107 H107       26.9002   30.5930    5.7271 H         1 UNK         0.0815 
    108 H108       26.9613   29.5990    7.1766 H         1 UNK         0.0815 
    109 H109       27.5969   31.2237    7.2206 H         1 UNK         0.0815 
    110 H110       28.7373   32.3509    6.1160 H         1 UNK         0.2987 
    111 H111       31.1555   33.1225    4.9616 H         1 UNK         0.0949 
    112 H112       29.7097   34.6435    6.2792 H         1 UNK         0.0806 
    113 H113       30.0387   35.3513    4.7078 H         1 UNK         0.0806 
    114 H114       28.4739   34.6129    5.0199 H         1 UNK         0.0806 
    115 H115       28.2415   32.0760    3.3304 H         1 UNK         0.3010 
    116 H116       28.7094   33.0500    0.7116 H         1 UNK         0.0829 
    117 H117       27.3135   30.4629    1.5923 H         1 UNK         0.0813 
    118 H118       27.1192   31.2723    0.0419 H         1 UNK         0.0813 
    119 H119       26.5446   32.0498    1.5047 H         1 UNK         0.0813 
    120 H120       30.0976   30.2669    2.4402 H         1 UNK         0.3038 
    121 H121       31.7193   29.5060    0.0480 H         1 UNK         0.0769 
    122 H122       30.3201   27.6803    1.0920 H         1 UNK         0.0811 
    123 H123       31.1606   27.9348    2.6169 H         1 UNK         0.0811 
    124 H124       32.0412   27.3738    1.1984 H         1 UNK         0.0811 
    125 H125       31.9555   31.7152    2.3273 H         1 UNK         0.3204 
    126 H126       33.4717   32.7926    3.4919 H         1 UNK         0.0748 
    127 H127       35.5644   31.3934    1.7472 H         1 UNK         0.0771 
    128 H128       34.6670   32.8432    1.2974 H         1 UNK         0.0771 
    129 H129       35.7864   32.8856    2.6484 H         1 UNK         0.0771 
    130 H130       32.4815   30.5513    4.8294 H         1 UNK         0.2980 
    131 H131       34.6572   30.1384    6.7534 H         1 UNK         0.0545 
    132 H132       32.9858   28.3205    8.4304 H         1 UNK         0.3459 
    133 H133       31.8512   29.4286    9.1564 H         1 UNK         0.3459 
    134 H134       34.2681   27.7156    6.9672 H         1 UNK         0.0616 
    135 H135       34.8292   28.1369    5.3787 H         1 UNK         0.0616 
    136 H136       34.2330   26.0061    4.2458 H         1 UNK         0.0634 
    137 H137       33.6775   25.2888    5.7439 H         1 UNK         0.0634 
@<TRIPOS>BOND
     1    1    2 1    
     2    1   72 1    
     3    1   73 1    
     4    1   74 1    
     5    2    3 2    
     6    2    4 am   BACKBONE|DICT|INTERRES
     7    4    5 1    
     8    4   75 1    
     9    5    6 1    
    10    5   35 1    
    11    5   76 1    
    12    6    7 1    
    13    6   77 1    
    14    6   78 1    
    15    7    8 1    
    16    8    9 1    
    17    8   79 1    
    18    8   80 1    
    19    9   10 ar   
    20    9   14 ar   
    21   10   11 ar   
    22   10   81 1    
    23   11   12 ar   
    24   11   71 1    
    25   12   13 ar   
    26   12   82 1    
    27   13   14 ar   
    28   13   15 1    
    29   14   83 1    
    30   15   16 1    
    31   15   84 1    
    32   15   85 1    
    33   16   17 1    
    34   17   18 1    
    35   17   86 1    
    36   17   87 1    
    37   18   19 1    
    38   18   37 1    
    39   18   88 1    
    40   19   20 am   BACKBONE|DICT|INTERRES
    41   19   89 1    
    42   20   21 2    
    43   20   22 1    
    44   22   23 1    
    45   22   24 1    
    46   22   90 1    
    47   23   91 1    
    48   23   92 1    
    49   23   93 1    
    50   24   25 am   BACKBONE|DICT|INTERRES
    51   24   94 1    
    52   25   26 2    
    53   25   27 1    
    54   27   28 1    
    55   27   29 1    
    56   27   95 1    
    57   28   96 1    
    58   28   97 1    
    59   28   98 1    
    60   29   30 am   BACKBONE|DICT|INTERRES
    61   29   99 1    
    62   30   31 2    
    63   30   32 1    
    64   32   33 1    
    65   32   34 1    
    66   32  100 1    
    67   33  101 1    
    68   33  102 1    
    69   33  103 1    
    70   34   35 am   BACKBONE|DICT|INTERRES
    71   34  104 1    
    72   35   36 2    
    73   37   38 2    
    74   37   39 am   BACKBONE|DICT|INTERRES
    75   39   40 1    
    76   39  105 1    
    77   40   41 1    
    78   40   42 1    
    79   40  106 1    
    80   41  107 1    
    81   41  108 1    
    82   41  109 1    
    83   42   43 2    
    84   42   44 am   BACKBONE|DICT|INTERRES
    85   44   45 1    
    86   44  110 1    
    87   45   46 1    
    88   45   47 1    
    89   45  111 1    
    90   46  112 1    
    91   46  113 1    
    92   46  114 1    
    93   47   48 2    
    94   47   49 am   BACKBONE|DICT|INTERRES
    95   49   50 1    
    96   49  115 1    
    97   50   51 1    
    98   50   52 1    
    99   50  116 1    
   100   51  117 1    
   101   51  118 1    
   102   51  119 1    
   103   52   53 2    
   104   52   54 am   BACKBONE|DICT|INTERRES
   105   54   55 1    
   106   54  120 1    
   107   55   56 1    
   108   55   57 1    
   109   55  121 1    
   110   56  122 1    
   111   56  123 1    
   112   56  124 1    
   113   57   58 2    
   114   57   59 am   BACKBONE|DICT|INTERRES
   115   59   60 1    
   116   59  125 1    
   117   60   61 1    
   118   60   62 1    
   119   60  126 1    
   120   61  127 1    
   121   61  128 1    
   122   61  129 1    
   123   62   63 2    
   124   62   64 am   BACKBONE|DICT|INTERRES
   125   64   65 1    
   126   64  130 1    
   127   65   66 1    
   128   65   69 1    
   129   65  131 1    
   130   66   67 am   BACKBONE|DICT|INTERRES
   131   66   68 2    
   132   67  132 1    
   133   67  133 1    
   134   69   70 1    
   135   69  134 1    
   136   69  135 1    
   137   70   71 1    
   138   71  136 1    
   139   71  137 1    
@<TRIPOS>SUBSTRUCTURE
     1 UNK         1 GROUP             0       ****    0 ROOT    
