@<TRIPOS>MOLECULE
3R136
137   139    1
SMALL
USER_CHARGES


@<TRIPOS>ATOM
      1 CA         28.5598   18.5302    2.6207 C.3       0 UNK        -0.1979 
      2 C          28.5392   19.9662    2.1199 C.2       0 UNK         0.4864 
      3 O          27.8064   20.7904    2.6679 O.2       0 UNK        -0.5359 
      4 N          29.3287   20.2647    1.0779 N.am      1 UNK        -0.4318 
      5 CA         29.5311   21.5708    0.4252 C.3       1 UNK         0.0824 
      6 C6         30.0729   22.6756    1.3673 C.3       12 UNK        -0.0944 
      7 S7         31.6520   22.2336    2.1824 S.3       12 UNK        -0.2672 
      8 C8         31.1964   22.0901    3.9457 C.3       12 UNK         0.0333 
      9 C9         30.6067   23.3864    4.4798 C.ar      12 UNK        -0.0807 
     10 C10        31.4295   24.4702    4.7963 C.ar      12 UNK        -0.0894 
     11 C11        30.8693   25.6976    5.1675 C.ar      12 UNK        -0.0804 
     12 C12        29.4784   25.8356    5.2274 C.ar      12 UNK        -0.0824 
     13 C13        28.6525   24.7534    4.9123 C.ar      12 UNK        -0.0762 
     14 C14        29.2223   23.5228    4.5859 C.ar      12 UNK        -0.0782 
     15 C15        27.1455   24.9082    4.8301 C.3       12 UNK         0.0230 
     16 S16        26.6165   24.9012    3.0845 S.3       12 UNK        -0.2608 
     17 C17        26.7859   26.6548    2.6184 C.3       12 UNK        -0.0989 
     18 CA         28.1344   27.0306    1.9461 C.3       5 UNK         0.0716 
     19 N          28.3185   26.4136    0.6212 N.am      5 UNK        -0.4135 
     20 C          29.4348   26.5577   -0.1174 C.2       4 UNK         0.5031 
     21 O          30.4567   27.0909    0.3150 O.2       4 UNK        -0.5229 
     22 CA         29.4458   26.0690   -1.5817 C.3       4 UNK         0.0329 
     23 CB         30.6279   25.1258   -1.8693 C.3       4 UNK        -0.2001 
     24 N          28.2027   25.4315   -2.0150 N.am      4 UNK        -0.4303 
     25 C          27.1332   26.0873   -2.4891 C.2       3 UNK         0.5044 
     26 O          27.0910   27.3089   -2.6359 O.2       3 UNK        -0.5152 
     27 CA         25.8920   25.2494   -2.8578 C.3       3 UNK         0.0319 
     28 CB         25.8293   25.0212   -4.3767 C.3       3 UNK        -0.2001 
     29 N          25.8215   23.9534   -2.1761 N.am      3 UNK        -0.4354 
     30 C          25.7422   23.7885   -0.8487 C.2       2 UNK         0.4964 
     31 O          25.6756   24.7272   -0.0567 O.2       2 UNK        -0.5047 
     32 CA         25.7862   22.3455   -0.3120 C.3       2 UNK         0.0288 
     33 CB         25.3430   21.2846   -1.3448 C.3       2 UNK        -0.2113 
     34 N          27.1019   21.9961    0.2377 N.am      2 UNK        -0.4145 
     35 C          28.2991   22.0730   -0.3628 C.2       1 UNK         0.5006 
     36 O          28.4618   22.5073   -1.5047 O.2       1 UNK        -0.5103 
     37 C          28.2152   28.5709    1.8487 C.2       5 UNK         0.5055 
     38 O          27.6468   29.1523    0.9201 O.2       5 UNK        -0.5220 
     39 N          28.8619   29.2031    2.8326 N.am      6 UNK        -0.4450 
     40 CA         28.9381   30.6516    2.9920 C.3       6 UNK         0.0367 
     41 CB         30.2443   31.1760    2.3746 C.3       6 UNK        -0.1929 
     42 C          28.8650   30.9829    4.4857 C.2       6 UNK         0.5070 
     43 O          29.3062   30.1793    5.3107 O.2       6 UNK        -0.5237 
     44 N          28.3065   32.1563    4.8043 N.am      7 UNK        -0.4739 
     45 CA         28.1291   32.6337    6.1791 C.3       7 UNK         0.0276 
     46 CB         26.8167   33.4309    6.2667 C.3       7 UNK        -0.1927 
     47 C          29.3027   33.4951    6.6742 C.2       7 UNK         0.5013 
     48 O          29.5304   33.5514    7.8834 O.2       7 UNK        -0.5193 
     49 N          30.0081   34.1660    5.7534 N.am      8 UNK        -0.4253 
     50 CA         31.0805   35.1174    6.0558 C.3       8 UNK         0.0242 
     51 CB         30.4809   36.4888    6.4341 C.3       8 UNK        -0.2000 
     52 C          32.0857   35.1993    4.8957 C.2       8 UNK         0.4948 
     53 O          32.4939   36.2957    4.5080 O.2       8 UNK        -0.5275 
     54 N          32.4684   34.0379    4.3569 N.am      9 UNK        -0.4246 
     55 CA         33.4857   33.8698    3.3221 C.3       9 UNK         0.0261 
     56 CB         32.8953   34.1645    1.9287 C.3       9 UNK        -0.1959 
     57 C          34.0265   32.4384    3.4180 C.2       9 UNK         0.5033 
     58 O          33.4500   31.6174    4.1379 O.2       9 UNK        -0.5390 
     59 N          35.1206   32.1622    2.6981 N.am      10 UNK        -0.4215 
     60 CA         35.7235   30.8323    2.6007 C.3       10 UNK         0.0240 
     61 CB         37.1191   30.9462    1.9647 C.3       10 UNK        -0.1982 
     62 C          34.8269   29.8827    1.7893 C.2       10 UNK         0.4970 
     63 O          34.4472   30.2216    0.6661 O.2       10 UNK        -0.4916 
     64 N          34.5222   28.7186    2.3700 N.am      11 UNK        -0.4279 
     65 CA         33.6641   27.6811    1.7731 C.3       11 UNK         0.1003 
     66 C          34.4036   26.7393    0.7765 C.2       11 UNK         0.5709 
     67 N          35.7147   26.8556    0.5958 N.am      11 UNK        -0.7358 
     68 O          33.7809   25.8887    0.1471 O.2       11 UNK        -0.4999 
     69 C69        32.9125   26.8739    2.8641 C.3       12 UNK        -0.0954 
     70 S70        31.9271   27.9419    3.9694 S.3       12 UNK        -0.2268 
     71 C71        31.7645   26.8932    5.4454 C.3       12 UNK         0.0203 
     72 H72        29.2491   17.9079    2.0502 H         1 UNK         0.0888 
     73 H73        28.8655   18.5039    3.6662 H         1 UNK         0.0888 
     74 H74        27.5648   18.0926    2.5450 H         1 UNK         0.0888 
     75 H75        29.8770   19.5180    0.6737 H         1 UNK         0.3017 
     76 H76        30.3032   21.3901   -0.3249 H         1 UNK         0.0873 
     77 H77        29.3128   22.9353    2.0982 H         1 UNK         0.0745 
     78 H78        30.2554   23.5975    0.8156 H         1 UNK         0.0745 
     79 H79        32.0845   21.8271    4.5219 H         1 UNK         0.0705 
     80 H80        30.4942   21.2648    4.0712 H         1 UNK         0.0705 
     81 H81        32.5026   24.3706    4.7075 H         1 UNK         0.1334 
     82 H82        29.0440   26.7943    5.4764 H         1 UNK         0.1417 
     83 H83        28.5785   22.6933    4.3247 H         1 UNK         0.1562 
     84 H84        26.8072   25.8137    5.3356 H         1 UNK         0.0748 
     85 H85        26.6695   24.0731    5.3462 H         1 UNK         0.0748 
     86 H86        26.6171   27.2564    3.5140 H         1 UNK         0.0940 
     87 H87        25.9581   26.8958    1.9481 H         1 UNK         0.0940 
     88 H88        28.9537   26.6834    2.5786 H         1 UNK         0.0703 
     89 H89        27.5046   25.9652    0.2191 H         1 UNK         0.3081 
     90 H90        29.6040   26.9627   -2.1891 H         1 UNK         0.0719 
     91 H91        30.7004   24.9009   -2.9334 H         1 UNK         0.0809 
     92 H92        31.5755   25.5779   -1.5730 H         1 UNK         0.0809 
     93 H93        30.5403   24.1805   -1.3386 H         1 UNK         0.0809 
     94 H94        28.1575   24.4198   -1.9272 H         1 UNK         0.2990 
     95 H95        25.0133   25.8259   -2.5612 H         1 UNK         0.0690 
     96 H96        25.8494   25.9698   -4.9153 H         1 UNK         0.0788 
     97 H97        24.9117   24.5075   -4.6643 H         1 UNK         0.0788 
     98 H98        26.6735   24.4276   -4.7303 H         1 UNK         0.0788 
     99 H99        25.9105   23.1287   -2.7523 H         1 UNK         0.2993 
    100 H100       25.0830   22.3118    0.5218 H         1 UNK         0.0949 
    101 H101       26.0476   21.1873   -2.1715 H         1 UNK         0.0767 
    102 H102       25.2537   20.3037   -0.8774 H         1 UNK         0.0767 
    103 H103       24.3657   21.5269   -1.7650 H         1 UNK         0.0767 
    104 H104       27.1080   21.6531    1.1972 H         1 UNK         0.3013 
    105 H105       29.2876   28.6802    3.5887 H         1 UNK         0.3121 
    106 H106       28.0885   31.1247    2.4945 H         1 UNK         0.0774 
    107 H107       31.1215   30.7397    2.8545 H         1 UNK         0.0815 
    108 H108       30.3137   32.2578    2.4839 H         1 UNK         0.0815 
    109 H109       30.3000   30.9497    1.3098 H         1 UNK         0.0815 
    110 H110       27.9504   32.7477    4.0661 H         1 UNK         0.2987 
    111 H111       28.0457   31.7792    6.8552 H         1 UNK         0.0949 
    112 H112       26.8298   34.3085    5.6189 H         1 UNK         0.0806 
    113 H113       25.9606   32.8175    5.9849 H         1 UNK         0.0806 
    114 H114       26.6402   33.7810    7.2849 H         1 UNK         0.0806 
    115 H115       29.7729   34.0514    4.7777 H         1 UNK         0.3010 
    116 H116       31.6478   34.7484    6.9132 H         1 UNK         0.0829 
    117 H117       29.8216   36.4121    7.2988 H         1 UNK         0.0813 
    118 H118       31.2637   37.2030    6.6925 H         1 UNK         0.0813 
    119 H119       29.9060   36.9150    5.6111 H         1 UNK         0.0813 
    120 H120       32.1552   33.1617    4.7605 H         1 UNK         0.3038 
    121 H121       34.3114   34.5563    3.5223 H         1 UNK         0.0769 
    122 H122       32.1152   33.4535    1.6597 H         1 UNK         0.0811 
    123 H123       33.6626   34.1078    1.1560 H         1 UNK         0.0811 
    124 H124       32.4670   35.1656    1.8790 H         1 UNK         0.0811 
    125 H125       35.5144   32.8822    2.1098 H         1 UNK         0.3204 
    126 H126       35.8417   30.4382    3.6128 H         1 UNK         0.0748 
    127 H127       37.7719   31.5920    2.5524 H         1 UNK         0.0771 
    128 H128       37.6013   29.9696    1.9044 H         1 UNK         0.0771 
    129 H129       37.0714   31.3488    0.9518 H         1 UNK         0.0771 
    130 H130       34.8656   28.5234    3.2984 H         1 UNK         0.2980 
    131 H131       32.9017   28.1864    1.1768 H         1 UNK         0.0545 
    132 H132       36.2418   27.5487    1.1008 H         1 UNK         0.3459 
    133 H133       36.1778   26.2410   -0.0548 H         1 UNK         0.3459 
    134 H134       32.2307   26.1535    2.4072 H         1 UNK         0.0616 
    135 H135       33.6210   26.2975    3.4610 H         1 UNK         0.0616 
    136 H136       31.3423   27.4899    6.2554 H         1 UNK         0.0634 
    137 H137       32.7516   26.5720    5.7813 H         1 UNK         0.0634 
@<TRIPOS>BOND
     1    1    2 1    
     2    1   72 1    
     3    1   73 1    
     4    1   74 1    
     5    2    3 2    
     6    2    4 am   BACKBONE|DICT|INTERRES
     7    4    5 1    
     8    4   75 1    
     9    5    6 1    
    10    5   35 1    
    11    5   76 1    
    12    6    7 1    
    13    6   77 1    
    14    6   78 1    
    15    7    8 1    
    16    8    9 1    
    17    8   79 1    
    18    8   80 1    
    19    9   10 ar   
    20    9   14 ar   
    21   10   11 ar   
    22   10   81 1    
    23   11   12 ar   
    24   11   71 1    
    25   12   13 ar   
    26   12   82 1    
    27   13   14 ar   
    28   13   15 1    
    29   14   83 1    
    30   15   16 1    
    31   15   84 1    
    32   15   85 1    
    33   16   17 1    
    34   17   18 1    
    35   17   86 1    
    36   17   87 1    
    37   18   19 1    
    38   18   37 1    
    39   18   88 1    
    40   19   20 am   BACKBONE|DICT|INTERRES
    41   19   89 1    
    42   20   21 2    
    43   20   22 1    
    44   22   23 1    
    45   22   24 1    
    46   22   90 1    
    47   23   91 1    
    48   23   92 1    
    49   23   93 1    
    50   24   25 am   BACKBONE|DICT|INTERRES
    51   24   94 1    
    52   25   26 2    
    53   25   27 1    
    54   27   28 1    
    55   27   29 1    
    56   27   95 1    
    57   28   96 1    
    58   28   97 1    
    59   28   98 1    
    60   29   30 am   BACKBONE|DICT|INTERRES
    61   29   99 1    
    62   30   31 2    
    63   30   32 1    
    64   32   33 1    
    65   32   34 1    
    66   32  100 1    
    67   33  101 1    
    68   33  102 1    
    69   33  103 1    
    70   34   35 am   BACKBONE|DICT|INTERRES
    71   34  104 1    
    72   35   36 2    
    73   37   38 2    
    74   37   39 am   BACKBONE|DICT|INTERRES
    75   39   40 1    
    76   39  105 1    
    77   40   41 1    
    78   40   42 1    
    79   40  106 1    
    80   41  107 1    
    81   41  108 1    
    82   41  109 1    
    83   42   43 2    
    84   42   44 am   BACKBONE|DICT|INTERRES
    85   44   45 1    
    86   44  110 1    
    87   45   46 1    
    88   45   47 1    
    89   45  111 1    
    90   46  112 1    
    91   46  113 1    
    92   46  114 1    
    93   47   48 2    
    94   47   49 am   BACKBONE|DICT|INTERRES
    95   49   50 1    
    96   49  115 1    
    97   50   51 1    
    98   50   52 1    
    99   50  116 1    
   100   51  117 1    
   101   51  118 1    
   102   51  119 1    
   103   52   53 2    
   104   52   54 am   BACKBONE|DICT|INTERRES
   105   54   55 1    
   106   54  120 1    
   107   55   56 1    
   108   55   57 1    
   109   55  121 1    
   110   56  122 1    
   111   56  123 1    
   112   56  124 1    
   113   57   58 2    
   114   57   59 am   BACKBONE|DICT|INTERRES
   115   59   60 1    
   116   59  125 1    
   117   60   61 1    
   118   60   62 1    
   119   60  126 1    
   120   61  127 1    
   121   61  128 1    
   122   61  129 1    
   123   62   63 2    
   124   62   64 am   BACKBONE|DICT|INTERRES
   125   64   65 1    
   126   64  130 1    
   127   65   66 1    
   128   65   69 1    
   129   65  131 1    
   130   66   67 am   BACKBONE|DICT|INTERRES
   131   66   68 2    
   132   67  132 1    
   133   67  133 1    
   134   69   70 1    
   135   69  134 1    
   136   69  135 1    
   137   70   71 1    
   138   71  136 1    
   139   71  137 1    
@<TRIPOS>SUBSTRUCTURE
     1 UNK         1 GROUP             0       ****    0 ROOT    
