@<TRIPOS>MOLECULE
3R136
137   139    1
SMALL
USER_CHARGES


@<TRIPOS>ATOM
      1 CA         29.1368   23.9657    5.2086 C.3       0 UNK        -0.1979 
      2 C          28.6727   23.1255    4.0301 C.2       0 UNK         0.4864 
      3 O          27.7533   22.3179    4.1733 O.2       0 UNK        -0.5359 
      4 N          29.2877   23.3193    2.8567 N.am      1 UNK        -0.4318 
      5 CA         29.0340   22.5817    1.6093 C.3       1 UNK         0.0824 
      6 C6         30.2626   22.6042    0.6594 C.3       12 UNK        -0.0944 
      7 S7         31.7744   21.9209    1.4273 S.3       12 UNK        -0.2672 
      8 C8         32.9009   23.3537    1.4365 C.3       12 UNK         0.0333 
      9 C9         32.5058   24.3773    2.4905 C.ar      12 UNK        -0.0807 
     10 C10        32.9451   24.2390    3.8112 C.ar      12 UNK        -0.0894 
     11 C11        32.5693   25.1720    4.7837 C.ar      12 UNK        -0.0804 
     12 C12        31.7260   26.2307    4.4355 C.ar      12 UNK        -0.0824 
     13 C13        31.2739   26.3693    3.1216 C.ar      12 UNK        -0.0762 
     14 C14        31.6908   25.4589    2.1476 C.ar      12 UNK        -0.0782 
     15 C15        30.3019   27.4739    2.7524 C.3       12 UNK         0.0230 
     16 S16        28.6504   26.7657    2.4657 S.3       12 UNK        -0.2608 
     17 C17        27.7060   28.2320    1.9523 C.3       12 UNK        -0.0989 
     18 CA         28.0283   28.6760    0.5036 C.3       5 UNK         0.0716 
     19 N          27.7866   27.6164   -0.4718 N.am      5 UNK        -0.4135 
     20 C          28.3789   27.5464   -1.6718 C.2       4 UNK         0.5031 
     21 O          29.1792   28.3877   -2.0843 O.2       4 UNK        -0.5229 
     22 CA         28.0547   26.3318   -2.5621 C.3       4 UNK         0.0329 
     23 CB         29.1935   25.3021   -2.4886 C.3       4 UNK        -0.2001 
     24 N          26.7877   25.6821   -2.2175 N.am      4 UNK        -0.4303 
     25 C          25.5823   26.2263   -2.4433 C.2       3 UNK         0.5044 
     26 O          25.4216   27.2894   -3.0444 O.2       3 UNK        -0.5152 
     27 CA         24.3407   25.4857   -1.9106 C.3       3 UNK         0.0319 
     28 CB         23.5674   24.8337   -3.0689 C.3       3 UNK        -0.2001 
     29 N          24.6064   24.4684   -0.8889 N.am      3 UNK        -0.4354 
     30 C          25.1526   24.6763    0.3177 C.2       2 UNK         0.4964 
     31 O          25.5647   25.7723    0.7003 O.2       2 UNK        -0.5047 
     32 CA         25.2638   23.4541    1.2535 C.3       2 UNK         0.0288 
     33 CB         24.6174   22.1664    0.6913 C.3       2 UNK        -0.2113 
     34 N          26.6406   23.1669    1.6692 N.am      2 UNK        -0.4145 
     35 C          27.7276   23.0211    0.8971 C.2       1 UNK         0.5006 
     36 O          27.7188   23.1940   -0.3246 O.2       1 UNK        -0.5103 
     37 C          27.2410   29.9428    0.1292 C.2       5 UNK         0.5055 
     38 O          26.0331   30.0027    0.3683 O.2       5 UNK        -0.5220 
     39 N          27.9450   30.9504   -0.4060 N.am      6 UNK        -0.4450 
     40 CA         27.4458   32.3272   -0.5178 C.3       6 UNK         0.0367 
     41 CB         28.3505   33.1279   -1.4679 C.3       6 UNK        -0.1929 
     42 C          27.3633   33.0115    0.8618 C.2       6 UNK         0.5070 
     43 O          26.4825   33.8415    1.0860 O.2       6 UNK        -0.5237 
     44 N          28.2646   32.6130    1.7649 N.am      7 UNK        -0.4739 
     45 CA         28.2686   32.8932    3.1936 C.3       7 UNK         0.0276 
     46 CB         29.1088   34.1493    3.4794 C.3       7 UNK        -0.1927 
     47 C          28.8679   31.6564    3.8742 C.2       7 UNK         0.5013 
     48 O          29.6398   30.9313    3.2384 O.2       7 UNK        -0.5193 
     49 N          28.5214   31.4293    5.1460 N.am      8 UNK        -0.4253 
     50 CA         29.0053   30.3029    5.9515 C.3       8 UNK         0.0242 
     51 CB         27.9776   30.0019    7.0587 C.3       8 UNK        -0.2000 
     52 C          30.4169   30.5765    6.5077 C.2       8 UNK         0.4948 
     53 O          30.5924   30.6881    7.7227 O.2       8 UNK        -0.5275 
     54 N          31.3922   30.7122    5.6049 N.am      9 UNK        -0.4246 
     55 CA         32.7909   31.0222    5.8850 C.3       9 UNK         0.0261 
     56 CB         32.9419   32.5341    6.1516 C.3       9 UNK        -0.1959 
     57 C          33.6496   30.5793    4.6926 C.2       9 UNK         0.5033 
     58 O          33.1007   30.2228    3.6467 O.2       9 UNK        -0.5390 
     59 N          34.9782   30.6365    4.8734 N.am      10 UNK        -0.4215 
     60 CA         36.0220   30.3053    3.8919 C.3       10 UNK         0.0240 
     61 CB         36.0204   31.3184    2.7258 C.3       10 UNK        -0.1982 
     62 C          35.9473   28.8395    3.4218 C.2       10 UNK         0.4970 
     63 O          35.9046   28.5730    2.2189 O.2       10 UNK        -0.4916 
     64 N          35.9146   27.9237    4.3981 N.am      11 UNK        -0.4279 
     65 CA         35.8329   26.4689    4.2075 C.3       11 UNK         0.1003 
     66 C          37.0079   25.8891    3.3729 C.2       11 UNK         0.5709 
     67 N          36.7366   24.9242    2.5045 N.am      11 UNK        -0.7358 
     68 O          38.1639   26.2743    3.5410 O.2       11 UNK        -0.4999 
     69 C69        35.7267   25.7241    5.5654 C.3       12 UNK        -0.0954 
     70 S70        34.3318   26.2896    6.5980 S.3       12 UNK        -0.2268 
     71 C71        33.0644   25.0405    6.2153 C.3       12 UNK         0.0203 
     72 H72        30.1422   23.6731    5.5093 H         1 UNK         0.0888 
     73 H73        29.1423   25.0239    4.9507 H         1 UNK         0.0888 
     74 H74        28.4743   23.8324    6.0634 H         1 UNK         0.0888 
     75 H75        30.0235   24.0114    2.8034 H         1 UNK         0.3017 
     76 H76        28.8716   21.5366    1.8820 H         1 UNK         0.0873 
     77 H77        30.4493   23.6139    0.2946 H         1 UNK         0.0745 
     78 H78        30.0626   22.0019   -0.2289 H         1 UNK         0.0745 
     79 H79        33.9134   22.9985    1.6332 H         1 UNK         0.0705 
     80 H80        32.9273   23.8083    0.4448 H         1 UNK         0.0705 
     81 H81        33.5804   23.4060    4.0803 H         1 UNK         0.1334 
     82 H82        31.4185   26.9409    5.1911 H         1 UNK         0.1417 
     83 H83        31.3461   25.5779    1.1293 H         1 UNK         0.1562 
     84 H84        30.6595   27.9820    1.8566 H         1 UNK         0.0748 
     85 H85        30.2492   28.2278    3.5385 H         1 UNK         0.0748 
     86 H86        27.8987   29.0364    2.6625 H         1 UNK         0.0940 
     87 H87        26.6456   27.9910    2.0521 H         1 UNK         0.0940 
     88 H88        29.0900   28.9278    0.4736 H         1 UNK         0.0703 
     89 H89        27.1177   26.9050   -0.1976 H         1 UNK         0.3081 
     90 H90        27.9846   26.6878   -3.5922 H         1 UNK         0.0719 
     91 H91        29.3562   24.9560   -1.4680 H         1 UNK         0.0809 
     92 H92        28.9872   24.4312   -3.1108 H         1 UNK         0.0809 
     93 H93        30.1324   25.7351   -2.8366 H         1 UNK         0.0809 
     94 H94        26.8450   24.8100   -1.7041 H         1 UNK         0.2990 
     95 H95        23.6971   26.2403   -1.4537 H         1 UNK         0.0690 
     96 H96        22.6296   24.3964   -2.7256 H         1 UNK         0.0788 
     97 H97        24.1505   24.0474   -3.5501 H         1 UNK         0.0788 
     98 H98        23.3165   25.5684   -3.8356 H         1 UNK         0.0788 
     99 H99        24.3265   23.5251   -1.1160 H         1 UNK         0.2993 
    100 H100       24.7217   23.7271    2.1601 H         1 UNK         0.0949 
    101 H101       25.1225   21.8115   -0.2082 H         1 UNK         0.0767 
    102 H102       24.6574   21.3610    1.4251 H         1 UNK         0.0767 
    103 H103       23.5640   22.3189    0.4516 H         1 UNK         0.0767 
    104 H104       26.7766   22.9961    2.6621 H         1 UNK         0.3013 
    105 H105       28.9160   30.7947   -0.6399 H         1 UNK         0.3121 
    106 H106       26.4391   32.3008   -0.9409 H         1 UNK         0.0774 
    107 H107       29.3745   33.1905   -1.0973 H         1 UNK         0.0815 
    108 H108       27.9837   34.1487   -1.5844 H         1 UNK         0.0815 
    109 H109       28.3784   32.6794   -2.4611 H         1 UNK         0.0815 
    110 H110       28.9342   31.8987    1.5055 H         1 UNK         0.2987 
    111 H111       27.2443   33.0354    3.5459 H         1 UNK         0.0949 
    112 H112       30.1428   34.0243    3.1546 H         1 UNK         0.0806 
    113 H113       28.7013   35.0222    2.9692 H         1 UNK         0.0806 
    114 H114       29.1260   34.3755    4.5462 H         1 UNK         0.0806 
    115 H115       27.9156   32.0886    5.6139 H         1 UNK         0.3010 
    116 H116       29.0717   29.4147    5.3194 H         1 UNK         0.0829 
    117 H117       28.2955   29.1527    7.6652 H         1 UNK         0.0813 
    118 H118       27.8439   30.8508    7.7303 H         1 UNK         0.0813 
    119 H119       27.0040   29.7498    6.6378 H         1 UNK         0.0813 
    120 H120       31.1770   30.5956    4.6167 H         1 UNK         0.3038 
    121 H121       33.1120   30.4567    6.7625 H         1 UNK         0.0769 
    122 H122       32.6313   33.1246    5.2885 H         1 UNK         0.0811 
    123 H123       33.9753   32.8005    6.3753 H         1 UNK         0.0811 
    124 H124       32.3410   32.8506    7.0043 H         1 UNK         0.0811 
    125 H125       35.3167   30.9376    5.7773 H         1 UNK         0.3204 
    126 H126       36.9774   30.4092    4.4089 H         1 UNK         0.0748 
    127 H127       36.8575   31.1372    2.0504 H         1 UNK         0.0771 
    128 H128       35.1067   31.2557    2.1336 H         1 UNK         0.0771 
    129 H129       36.1139   32.3417    3.0894 H         1 UNK         0.0771 
    130 H130       35.9478   28.2341    5.3569 H         1 UNK         0.2980 
    131 H131       34.9142   26.2926    3.6465 H         1 UNK         0.0545 
    132 H132       35.7930   24.6016    2.3652 H         1 UNK         0.3459 
    133 H133       37.4894   24.5246    1.9663 H         1 UNK         0.3459 
    134 H134       36.6419   25.8626    6.1440 H         1 UNK         0.0616 
    135 H135       35.6333   24.6483    5.4063 H         1 UNK         0.0616 
    136 H136       33.4637   24.0427    6.4038 H         1 UNK         0.0634 
    137 H137       32.2252   25.1689    6.9004 H         1 UNK         0.0634 
@<TRIPOS>BOND
     1    1    2 1    
     2    1   72 1    
     3    1   73 1    
     4    1   74 1    
     5    2    3 2    
     6    2    4 am   BACKBONE|DICT|INTERRES
     7    4    5 1    
     8    4   75 1    
     9    5    6 1    
    10    5   35 1    
    11    5   76 1    
    12    6    7 1    
    13    6   77 1    
    14    6   78 1    
    15    7    8 1    
    16    8    9 1    
    17    8   79 1    
    18    8   80 1    
    19    9   10 ar   
    20    9   14 ar   
    21   10   11 ar   
    22   10   81 1    
    23   11   12 ar   
    24   11   71 1    
    25   12   13 ar   
    26   12   82 1    
    27   13   14 ar   
    28   13   15 1    
    29   14   83 1    
    30   15   16 1    
    31   15   84 1    
    32   15   85 1    
    33   16   17 1    
    34   17   18 1    
    35   17   86 1    
    36   17   87 1    
    37   18   19 1    
    38   18   37 1    
    39   18   88 1    
    40   19   20 am   BACKBONE|DICT|INTERRES
    41   19   89 1    
    42   20   21 2    
    43   20   22 1    
    44   22   23 1    
    45   22   24 1    
    46   22   90 1    
    47   23   91 1    
    48   23   92 1    
    49   23   93 1    
    50   24   25 am   BACKBONE|DICT|INTERRES
    51   24   94 1    
    52   25   26 2    
    53   25   27 1    
    54   27   28 1    
    55   27   29 1    
    56   27   95 1    
    57   28   96 1    
    58   28   97 1    
    59   28   98 1    
    60   29   30 am   BACKBONE|DICT|INTERRES
    61   29   99 1    
    62   30   31 2    
    63   30   32 1    
    64   32   33 1    
    65   32   34 1    
    66   32  100 1    
    67   33  101 1    
    68   33  102 1    
    69   33  103 1    
    70   34   35 am   BACKBONE|DICT|INTERRES
    71   34  104 1    
    72   35   36 2    
    73   37   38 2    
    74   37   39 am   BACKBONE|DICT|INTERRES
    75   39   40 1    
    76   39  105 1    
    77   40   41 1    
    78   40   42 1    
    79   40  106 1    
    80   41  107 1    
    81   41  108 1    
    82   41  109 1    
    83   42   43 2    
    84   42   44 am   BACKBONE|DICT|INTERRES
    85   44   45 1    
    86   44  110 1    
    87   45   46 1    
    88   45   47 1    
    89   45  111 1    
    90   46  112 1    
    91   46  113 1    
    92   46  114 1    
    93   47   48 2    
    94   47   49 am   BACKBONE|DICT|INTERRES
    95   49   50 1    
    96   49  115 1    
    97   50   51 1    
    98   50   52 1    
    99   50  116 1    
   100   51  117 1    
   101   51  118 1    
   102   51  119 1    
   103   52   53 2    
   104   52   54 am   BACKBONE|DICT|INTERRES
   105   54   55 1    
   106   54  120 1    
   107   55   56 1    
   108   55   57 1    
   109   55  121 1    
   110   56  122 1    
   111   56  123 1    
   112   56  124 1    
   113   57   58 2    
   114   57   59 am   BACKBONE|DICT|INTERRES
   115   59   60 1    
   116   59  125 1    
   117   60   61 1    
   118   60   62 1    
   119   60  126 1    
   120   61  127 1    
   121   61  128 1    
   122   61  129 1    
   123   62   63 2    
   124   62   64 am   BACKBONE|DICT|INTERRES
   125   64   65 1    
   126   64  130 1    
   127   65   66 1    
   128   65   69 1    
   129   65  131 1    
   130   66   67 am   BACKBONE|DICT|INTERRES
   131   66   68 2    
   132   67  132 1    
   133   67  133 1    
   134   69   70 1    
   135   69  134 1    
   136   69  135 1    
   137   70   71 1    
   138   71  136 1    
   139   71  137 1    
@<TRIPOS>SUBSTRUCTURE
     1 UNK         1 GROUP             0       ****    0 ROOT    
