@<TRIPOS>MOLECULE
3R136
137   139    1
SMALL
USER_CHARGES


@<TRIPOS>ATOM
      1 CA         27.1599   21.4261   -0.4028 C.3       0 UNK        -0.1979 
      2 C          27.4638   22.2753    0.8217 C.2       0 UNK         0.4864 
      3 O          26.5380   22.6796    1.5269 O.2       0 UNK        -0.5359 
      4 N          28.7507   22.5608    1.0740 N.am      1 UNK        -0.4318 
      5 CA         29.2476   23.3605    2.2027 C.3       1 UNK         0.0824 
      6 C6         29.0259   22.6335    3.5657 C.3       12 UNK        -0.0944 
      7 S7         30.2601   22.8721    4.8998 S.3       12 UNK        -0.2672 
      8 C8         30.9087   24.5791    4.8039 C.3       12 UNK         0.0333 
      9 C9         31.9669   24.7820    3.7255 C.ar      12 UNK        -0.0807 
     10 C10        33.0539   23.9084    3.6299 C.ar      12 UNK        -0.0894 
     11 C11        34.0566   24.1165    2.6790 C.ar      12 UNK        -0.0804 
     12 C12        33.9591   25.2016    1.8034 C.ar      12 UNK        -0.0824 
     13 C13        32.8919   26.0997    1.9054 C.ar      12 UNK        -0.0762 
     14 C14        31.8979   25.8831    2.8650 C.ar      12 UNK        -0.0782 
     15 C15        32.8427   27.3301    1.0132 C.3       12 UNK         0.0230 
     16 S16        31.5909   27.1663   -0.2938 S.3       12 UNK        -0.2608 
     17 C17        30.3542   28.3917    0.2533 C.3       12 UNK        -0.0989 
     18 CA         29.2458   28.5911   -0.8108 C.3       5 UNK         0.0716 
     19 N          28.4711   27.3619   -1.0082 N.am      5 UNK        -0.4135 
     20 C          27.8412   27.0197   -2.1390 C.2       4 UNK         0.5031 
     21 O          27.7984   27.7269   -3.1458 O.2       4 UNK        -0.5229 
     22 CA         27.1189   25.6647   -2.1332 C.3       4 UNK         0.0329 
     23 CB         28.1194   24.5131   -2.3238 C.3       4 UNK        -0.2001 
     24 N          26.3579   25.4666   -0.8978 N.am      4 UNK        -0.4303 
     25 C          25.1634   26.0232   -0.6507 C.2       3 UNK         0.5044 
     26 O          24.5497   26.7158   -1.4621 O.2       3 UNK        -0.5152 
     27 CA         24.5592   25.7902    0.7450 C.3       3 UNK         0.0319 
     28 CB         23.7102   24.5094    0.7638 C.3       3 UNK        -0.2001 
     29 N          25.5808   25.7296    1.7943 N.am      3 UNK        -0.4354 
     30 C          26.2592   26.8043    2.2264 C.2       2 UNK         0.4964 
     31 O          26.0497   27.9452    1.8218 O.2       2 UNK        -0.5047 
     32 CA         27.3879   26.5907    3.2484 C.3       2 UNK         0.0288 
     33 CB         26.8826   26.8431    4.6770 C.3       2 UNK        -0.2113 
     34 N          28.0099   25.2691    3.1761 N.am      2 UNK        -0.4145 
     35 C          28.6719   24.7923    2.1134 C.2       1 UNK         0.5006 
     36 O          28.8038   25.4280    1.0648 O.2       1 UNK        -0.5103 
     37 C          28.3709   29.8248   -0.4916 C.2       5 UNK         0.5055 
     38 O          28.9288   30.9035   -0.2893 O.2       5 UNK        -0.5220 
     39 N          27.0385   29.6665   -0.4247 N.am      6 UNK        -0.4450 
     40 CA         26.0310   30.6997   -0.1320 C.3       6 UNK         0.0367 
     41 CB         25.9020   31.6731   -1.3222 C.3       6 UNK        -0.1929 
     42 C          26.2758   31.4274    1.2078 C.2       6 UNK         0.5070 
     43 O          26.0614   32.6364    1.3075 O.2       6 UNK        -0.5237 
     44 N          26.7608   30.6664    2.1992 N.am      7 UNK        -0.4739 
     45 CA         27.1908   31.0776    3.5409 C.3       7 UNK         0.0276 
     46 CB         25.9742   31.5193    4.3806 C.3       7 UNK        -0.1927 
     47 C          28.3333   32.1185    3.5706 C.2       7 UNK         0.5013 
     48 O          28.5386   32.7471    4.6105 O.2       7 UNK        -0.5193 
     49 N          29.0703   32.2864    2.4601 N.am      8 UNK        -0.4253 
     50 CA         30.1690   33.2527    2.3422 C.3       8 UNK         0.0242 
     51 CB         30.4909   33.4873    0.8574 C.3       8 UNK        -0.2000 
     52 C          31.4404   32.8375    3.1033 C.2       8 UNK         0.4948 
     53 O          32.2374   33.7082    3.4559 O.2       8 UNK        -0.5275 
     54 N          31.6138   31.5326    3.3408 N.am      9 UNK        -0.4246 
     55 CA         32.7255   30.9373    4.0730 C.3       9 UNK         0.0261 
     56 CB         33.9680   30.8384    3.1652 C.3       9 UNK        -0.1959 
     57 C          32.2954   29.5546    4.5722 C.2       9 UNK         0.5033 
     58 O          31.3307   28.9892    4.0487 O.2       9 UNK        -0.5390 
     59 N          33.0445   29.0313    5.5478 N.am      10 UNK        -0.4215 
     60 CA         32.9011   27.6863    6.1046 C.3       10 UNK         0.0240 
     61 CB         32.3637   27.7779    7.5454 C.3       10 UNK        -0.1982 
     62 C          34.2577   26.9704    6.0054 C.2       10 UNK         0.4970 
     63 O          34.8042   26.5235    7.0152 O.2       10 UNK        -0.4916 
     64 N          34.7849   26.9205    4.7768 N.am      11 UNK        -0.4279 
     65 CA         36.1208   26.4317    4.4068 C.3       11 UNK         0.1003 
     66 C          37.2850   27.3235    4.9336 C.2       11 UNK         0.5709 
     67 N          38.5283   26.8881    4.7783 N.am      11 UNK        -0.7358 
     68 O          37.0817   28.4283    5.4356 O.2       11 UNK        -0.4999 
     69 C69        36.3096   24.9016    4.6739 C.3       12 UNK        -0.0954 
     70 S70        36.8104   24.0194    3.1543 S.3       12 UNK        -0.2268 
     71 C71        35.2662   23.1909    2.6370 C.3       12 UNK         0.0203 
     72 H72        28.0412   21.2804   -1.0272 H         1 UNK         0.0888 
     73 H73        26.7929   20.4471   -0.0959 H         1 UNK         0.0888 
     74 H74        26.3891   21.9026   -1.0080 H         1 UNK         0.0888 
     75 H75        29.4625   22.2280    0.4386 H         1 UNK         0.3017 
     76 H76        30.3203   23.4484    2.0314 H         1 UNK         0.0873 
     77 H77        28.0245   22.8016    3.9660 H         1 UNK         0.0745 
     78 H78        29.0491   21.5570    3.3843 H         1 UNK         0.0745 
     79 H79        30.0963   25.2981    4.7179 H         1 UNK         0.0705 
     80 H80        31.3800   24.7955    5.7635 H         1 UNK         0.0705 
     81 H81        33.1308   23.0761    4.3163 H         1 UNK         0.1334 
     82 H82        34.7394   25.3678    1.0731 H         1 UNK         0.1417 
     83 H83        31.0798   26.5862    2.9480 H         1 UNK         0.1562 
     84 H84        33.8130   27.5026    0.5445 H         1 UNK         0.0748 
     85 H85        32.6433   28.2110    1.6240 H         1 UNK         0.0748 
     86 H86        30.8803   29.3295    0.4442 H         1 UNK         0.0940 
     87 H87        29.9293   28.0751    1.2077 H         1 UNK         0.0940 
     88 H88        29.7419   28.8289   -1.7545 H         1 UNK         0.0703 
     89 H89        28.5139   26.6848   -0.2485 H         1 UNK         0.3081 
     90 H90        26.4274   25.6508   -2.9787 H         1 UNK         0.0719 
     91 H91        28.8146   24.4313   -1.4875 H         1 UNK         0.0809 
     92 H92        27.6060   23.5588   -2.4328 H         1 UNK         0.0809 
     93 H93        28.7143   24.6608   -3.2263 H         1 UNK         0.0809 
     94 H94        26.8132   24.9554   -0.1543 H         1 UNK         0.2990 
     95 H95        23.8981   26.6319    0.9637 H         1 UNK         0.0690 
     96 H96        23.2594   24.3453    1.7426 H         1 UNK         0.0788 
     97 H97        24.2980   23.6265    0.5121 H         1 UNK         0.0788 
     98 H98        22.8970   24.5731    0.0394 H         1 UNK         0.0788 
     99 H99        25.8285   24.8107    2.1410 H         1 UNK         0.2993 
    100 H100       28.1626   27.3285    3.0279 H         1 UNK         0.0949 
    101 H101       26.1292   26.1125    4.9742 H         1 UNK         0.0767 
    102 H102       27.6978   26.8003    5.3996 H         1 UNK         0.0767 
    103 H103       26.4291   27.8320    4.7619 H         1 UNK         0.0767 
    104 H104       27.9129   24.6759    3.9876 H         1 UNK         0.3013 
    105 H105       26.6753   28.7311   -0.5425 H         1 UNK         0.3121 
    106 H106       25.0793   30.1772   -0.0230 H         1 UNK         0.0774 
    107 H107       26.8073   32.2662   -1.4575 H         1 UNK         0.0815 
    108 H108       25.0761   32.3693   -1.1717 H         1 UNK         0.0815 
    109 H109       25.7086   31.1387   -2.2522 H         1 UNK         0.0815 
    110 H110       26.7970   29.6666    2.0140 H         1 UNK         0.2987 
    111 H111       27.6023   30.1814    4.0081 H         1 UNK         0.0949 
    112 H112       25.5413   32.4473    4.0059 H         1 UNK         0.0806 
    113 H113       25.1933   30.7587    4.3766 H         1 UNK         0.0806 
    114 H114       26.2527   31.6875    5.4215 H         1 UNK         0.0806 
    115 H115       28.8395   31.7557    1.6262 H         1 UNK         0.3010 
    116 H116       29.8296   34.2007    2.7659 H         1 UNK         0.0829 
    117 H117       29.6042   33.7914    0.3003 H         1 UNK         0.0813 
    118 H118       31.2353   34.2760    0.7400 H         1 UNK         0.0813 
    119 H119       30.8927   32.5897    0.3853 H         1 UNK         0.0813 
    120 H120       30.8960   30.8713    3.0712 H         1 UNK         0.3038 
    121 H121       32.9519   31.5591    4.9422 H         1 UNK         0.0769 
    122 H122       34.8021   30.3602    3.6806 H         1 UNK         0.0811 
    123 H123       34.3102   31.8253    2.8537 H         1 UNK         0.0811 
    124 H124       33.7640   30.2602    2.2638 H         1 UNK         0.0811 
    125 H125       33.8374   29.5603    5.8870 H         1 UNK         0.3204 
    126 H126       32.1897   27.1069    5.5158 H         1 UNK         0.0748 
    127 H127       33.0392   28.3364    8.1945 H         1 UNK         0.0771 
    128 H128       31.3911   28.2694    7.5720 H         1 UNK         0.0771 
    129 H129       32.2367   26.7849    7.9788 H         1 UNK         0.0771 
    130 H130       34.2517   27.3182    4.0189 H         1 UNK         0.2980 
    131 H131       36.1432   26.6040    3.3304 H         1 UNK         0.0545 
    132 H132       39.2942   27.4612    5.0961 H         1 UNK         0.3459 
    133 H133       38.7109   25.9961    4.3445 H         1 UNK         0.3459 
    134 H134       37.0542   24.7106    5.4482 H         1 UNK         0.0616 
    135 H135       35.3979   24.4467    5.0613 H         1 UNK         0.0616 
    136 H136       35.1080   22.3213    3.2770 H         1 UNK         0.0634 
    137 H137       35.3926   22.8066    1.6240 H         1 UNK         0.0634 
@<TRIPOS>BOND
     1    1    2 1    
     2    1   72 1    
     3    1   73 1    
     4    1   74 1    
     5    2    3 2    
     6    2    4 am   BACKBONE|DICT|INTERRES
     7    4    5 1    
     8    4   75 1    
     9    5    6 1    
    10    5   35 1    
    11    5   76 1    
    12    6    7 1    
    13    6   77 1    
    14    6   78 1    
    15    7    8 1    
    16    8    9 1    
    17    8   79 1    
    18    8   80 1    
    19    9   10 ar   
    20    9   14 ar   
    21   10   11 ar   
    22   10   81 1    
    23   11   12 ar   
    24   11   71 1    
    25   12   13 ar   
    26   12   82 1    
    27   13   14 ar   
    28   13   15 1    
    29   14   83 1    
    30   15   16 1    
    31   15   84 1    
    32   15   85 1    
    33   16   17 1    
    34   17   18 1    
    35   17   86 1    
    36   17   87 1    
    37   18   19 1    
    38   18   37 1    
    39   18   88 1    
    40   19   20 am   BACKBONE|DICT|INTERRES
    41   19   89 1    
    42   20   21 2    
    43   20   22 1    
    44   22   23 1    
    45   22   24 1    
    46   22   90 1    
    47   23   91 1    
    48   23   92 1    
    49   23   93 1    
    50   24   25 am   BACKBONE|DICT|INTERRES
    51   24   94 1    
    52   25   26 2    
    53   25   27 1    
    54   27   28 1    
    55   27   29 1    
    56   27   95 1    
    57   28   96 1    
    58   28   97 1    
    59   28   98 1    
    60   29   30 am   BACKBONE|DICT|INTERRES
    61   29   99 1    
    62   30   31 2    
    63   30   32 1    
    64   32   33 1    
    65   32   34 1    
    66   32  100 1    
    67   33  101 1    
    68   33  102 1    
    69   33  103 1    
    70   34   35 am   BACKBONE|DICT|INTERRES
    71   34  104 1    
    72   35   36 2    
    73   37   38 2    
    74   37   39 am   BACKBONE|DICT|INTERRES
    75   39   40 1    
    76   39  105 1    
    77   40   41 1    
    78   40   42 1    
    79   40  106 1    
    80   41  107 1    
    81   41  108 1    
    82   41  109 1    
    83   42   43 2    
    84   42   44 am   BACKBONE|DICT|INTERRES
    85   44   45 1    
    86   44  110 1    
    87   45   46 1    
    88   45   47 1    
    89   45  111 1    
    90   46  112 1    
    91   46  113 1    
    92   46  114 1    
    93   47   48 2    
    94   47   49 am   BACKBONE|DICT|INTERRES
    95   49   50 1    
    96   49  115 1    
    97   50   51 1    
    98   50   52 1    
    99   50  116 1    
   100   51  117 1    
   101   51  118 1    
   102   51  119 1    
   103   52   53 2    
   104   52   54 am   BACKBONE|DICT|INTERRES
   105   54   55 1    
   106   54  120 1    
   107   55   56 1    
   108   55   57 1    
   109   55  121 1    
   110   56  122 1    
   111   56  123 1    
   112   56  124 1    
   113   57   58 2    
   114   57   59 am   BACKBONE|DICT|INTERRES
   115   59   60 1    
   116   59  125 1    
   117   60   61 1    
   118   60   62 1    
   119   60  126 1    
   120   61  127 1    
   121   61  128 1    
   122   61  129 1    
   123   62   63 2    
   124   62   64 am   BACKBONE|DICT|INTERRES
   125   64   65 1    
   126   64  130 1    
   127   65   66 1    
   128   65   69 1    
   129   65  131 1    
   130   66   67 am   BACKBONE|DICT|INTERRES
   131   66   68 2    
   132   67  132 1    
   133   67  133 1    
   134   69   70 1    
   135   69  134 1    
   136   69  135 1    
   137   70   71 1    
   138   71  136 1    
   139   71  137 1    
@<TRIPOS>SUBSTRUCTURE
     1 UNK         1 GROUP             0       ****    0 ROOT    
