@<TRIPOS>MOLECULE
3R136
137   139    1
SMALL
USER_CHARGES


@<TRIPOS>ATOM
      1 CA         29.3112   21.8349   -3.5393 C.3       0 UNK        -0.1979 
      2 C          29.2921   21.0139   -2.2515 C.2       0 UNK         0.4864 
      3 O          28.9889   19.8232   -2.3051 O.2       0 UNK        -0.5359 
      4 N          29.6107   21.5822   -1.0775 N.am      1 UNK        -0.4318 
      5 CA         29.9422   22.9925   -0.8229 C.3       1 UNK         0.0824 
      6 C6         30.5651   23.1767    0.5884 C.3       12 UNK        -0.0944 
      7 S7         32.0003   24.3008    0.5973 S.3       12 UNK        -0.2672 
      8 C8         32.8897   23.7674    2.0989 C.3       12 UNK         0.0333 
      9 C9         32.2137   24.2789    3.3633 C.ar      12 UNK        -0.0807 
     10 C10        32.6516   25.4570    3.9746 C.ar      12 UNK        -0.0894 
     11 C11        32.0009   25.9598    5.1049 C.ar      12 UNK        -0.0804 
     12 C12        30.9183   25.2600    5.6441 C.ar      12 UNK        -0.0824 
     13 C13        30.4629   24.0880    5.0317 C.ar      12 UNK        -0.0762 
     14 C14        31.1298   23.5889    3.9098 C.ar      12 UNK        -0.0782 
     15 C15        29.2034   23.3975    5.5302 C.3       12 UNK         0.0230 
     16 S16        27.7132   24.4121    5.2455 S.3       12 UNK        -0.2608 
     17 C17        27.8592   24.9101    3.4875 C.3       12 UNK        -0.0989 
     18 CA         28.3774   26.3652    3.3073 C.3       5 UNK         0.0716 
     19 N          28.6973   26.7011    1.9173 N.am      5 UNK        -0.4135 
     20 C          29.5962   27.6330    1.5549 C.2       4 UNK         0.5031 
     21 O          30.4154   28.1360    2.3246 O.2       4 UNK        -0.5229 
     22 CA         29.5595   28.1524    0.1049 C.3       4 UNK         0.0329 
     23 CB         30.7789   27.6849   -0.6991 C.3       4 UNK        -0.2001 
     24 N          28.3338   27.8011   -0.6118 N.am      4 UNK        -0.4303 
     25 C          27.1586   28.4188   -0.4237 C.2       3 UNK         0.5044 
     26 O          27.0012   29.3566    0.3569 O.2       3 UNK        -0.5152 
     27 CA         25.9397   27.8667   -1.1835 C.3       3 UNK         0.0319 
     28 CB         25.7765   28.5893   -2.5293 C.3       3 UNK        -0.2001 
     29 N          25.9846   26.4195   -1.4089 N.am      3 UNK        -0.4354 
     30 C          26.1042   25.4862   -0.4542 C.2       2 UNK         0.4964 
     31 O          26.1804   25.7493    0.7477 O.2       2 UNK        -0.5047 
     32 CA         26.2028   24.0184   -0.9118 C.3       2 UNK         0.0288 
     33 CB         25.8050   23.7952   -2.3894 C.3       2 UNK        -0.2113 
     34 N          27.5280   23.4342   -0.6638 N.am      2 UNK        -0.4145 
     35 C          28.7242   23.9199   -1.0408 C.2       1 UNK         0.5006 
     36 O          28.8828   25.0112   -1.5897 O.2       1 UNK        -0.5103 
     37 C          27.3758   27.3961    3.8564 C.2       5 UNK         0.5055 
     38 O          27.6291   27.9775    4.9109 O.2       5 UNK        -0.5220 
     39 N          26.2729   27.6196    3.1228 N.am      6 UNK        -0.4450 
     40 CA         25.1648   28.5001    3.5138 C.3       6 UNK         0.0367 
     41 CB         24.0570   28.4413    2.4506 C.3       6 UNK        -0.1929 
     42 C          25.5843   29.9570    3.7797 C.2       6 UNK         0.5070 
     43 O          25.1715   30.5316    4.7873 O.2       6 UNK        -0.5237 
     44 N          26.4168   30.5153    2.8921 N.am      7 UNK        -0.4739 
     45 CA         27.0090   31.8486    3.0376 C.3       7 UNK         0.0276 
     46 CB         27.2543   32.4314    1.6349 C.3       7 UNK        -0.1927 
     47 C          28.3206   31.8386    3.8458 C.2       7 UNK         0.5013 
     48 O          28.8441   32.9131    4.1404 O.2       7 UNK        -0.5193 
     49 N          28.8516   30.6411    4.1421 N.am      8 UNK        -0.4253 
     50 CA         30.1489   30.3500    4.7711 C.3       8 UNK         0.0242 
     51 CB         30.1685   30.8225    6.2391 C.3       8 UNK        -0.2000 
     52 C          31.3666   30.8619    3.9714 C.2       8 UNK         0.4948 
     53 O          32.4542   30.9891    4.5340 O.2       8 UNK        -0.5275 
     54 N          31.1757   31.1284    2.6710 N.am      9 UNK        -0.4246 
     55 CA         32.1468   31.7436    1.7629 C.3       9 UNK         0.0261 
     56 CB         31.4624   32.0270    0.4154 C.3       9 UNK        -0.1959 
     57 C          33.4355   30.9316    1.5505 C.2       9 UNK         0.5033 
     58 O          34.4668   31.5249    1.2320 O.2       9 UNK        -0.5390 
     59 N          33.3640   29.6056    1.7276 N.am      10 UNK        -0.4215 
     60 CA         34.5193   28.7084    1.6454 C.3       10 UNK         0.0240 
     61 CB         34.0552   27.3247    1.1587 C.3       10 UNK        -0.1982 
     62 C          35.3325   28.6210    2.9533 C.2       10 UNK         0.4970 
     63 O          36.4161   28.0353    2.9284 O.2       10 UNK        -0.4916 
     64 N          34.8257   29.1886    4.0559 N.am      11 UNK        -0.4279 
     65 CA         35.5128   29.2635    5.3542 C.3       11 UNK         0.1003 
     66 C          36.1979   30.6429    5.5528 C.2       11 UNK         0.5709 
     67 N          37.1069   30.7452    6.5136 N.am      11 UNK        -0.7358 
     68 O          35.9201   31.6216    4.8616 O.2       11 UNK        -0.4999 
     69 C69        34.5504   28.9282    6.5258 C.3       12 UNK        -0.0954 
     70 S70        34.0476   27.1759    6.5070 S.3       12 UNK        -0.2268 
     71 C71        32.4302   27.2946    5.6900 C.3       12 UNK         0.0203 
     72 H72        29.2815   21.1766   -4.4073 H         1 UNK         0.0888 
     73 H73        28.4427   22.4902   -3.5928 H         1 UNK         0.0888 
     74 H74        30.2145   22.4375   -3.6219 H         1 UNK         0.0888 
     75 H75        29.6065   20.9895   -0.2597 H         1 UNK         0.3017 
     76 H76        30.6927   23.2758   -1.5628 H         1 UNK         0.0873 
     77 H77        30.9135   22.2171    0.9737 H         1 UNK         0.0745 
     78 H78        29.8339   23.5336    1.3123 H         1 UNK         0.0745 
     79 H79        33.9129   24.1425    2.0478 H         1 UNK         0.0705 
     80 H80        32.9688   22.6796    2.1222 H         1 UNK         0.0705 
     81 H81        33.4937   25.9968    3.5682 H         1 UNK         0.1334 
     82 H82        30.3907   25.6554    6.5015 H         1 UNK         0.1417 
     83 H83        30.7797   22.6824    3.4364 H         1 UNK         0.1562 
     84 H84        29.2986   23.1943    6.5977 H         1 UNK         0.0748 
     85 H85        29.0696   22.4300    5.0439 H         1 UNK         0.0748 
     86 H86        26.8820   24.7789    3.0216 H         1 UNK         0.0940 
     87 H87        28.5172   24.2099    2.9783 H         1 UNK         0.0940 
     88 H88        29.2938   26.4665    3.8884 H         1 UNK         0.0703 
     89 H89        28.0432   26.3625    1.2218 H         1 UNK         0.3081 
     90 H90        29.6095   29.2413    0.1638 H         1 UNK         0.0719 
     91 H91        30.7568   28.0733   -1.7172 H         1 UNK         0.0809 
     92 H92        31.6991   28.0422   -0.2408 H         1 UNK         0.0809 
     93 H93        30.8366   26.5992   -0.7564 H         1 UNK         0.0809 
     94 H94        28.3809   26.9932   -1.2253 H         1 UNK         0.2990 
     95 H95        25.0550   28.0718   -0.5795 H         1 UNK         0.0690 
     96 H96        26.6165   28.3942   -3.1974 H         1 UNK         0.0788 
     97 H97        25.7169   29.6695   -2.3870 H         1 UNK         0.0788 
     98 H98        24.8628   28.2812   -3.0379 H         1 UNK         0.0788 
     99 H99        25.9565   26.1102   -2.3698 H         1 UNK         0.2993 
    100 H100       25.4953   23.4659   -0.2914 H         1 UNK         0.0949 
    101 H101       26.4989   24.2725   -3.0826 H         1 UNK         0.0767 
    102 H102       25.7872   22.7318   -2.6291 H         1 UNK         0.0767 
    103 H103       24.8051   24.1809   -2.5945 H         1 UNK         0.0767 
    104 H104       27.5195   22.5356   -0.2020 H         1 UNK         0.3013 
    105 H105       26.1460   27.0819    2.2713 H         1 UNK         0.3121 
    106 H106       24.7587   28.1023    4.4462 H         1 UNK         0.0774 
    107 H107       23.1816   29.0070    2.7722 H         1 UNK         0.0815 
    108 H108       24.3858   28.8679    1.5034 H         1 UNK         0.0815 
    109 H109       23.7316   27.4173    2.2661 H         1 UNK         0.0815 
    110 H110       26.6643   29.9958    2.0504 H         1 UNK         0.2987 
    111 H111       26.3085   32.5033    3.5609 H         1 UNK         0.0949 
    112 H112       27.9737   31.8378    1.0696 H         1 UNK         0.0806 
    113 H113       26.3310   32.4742    1.0569 H         1 UNK         0.0806 
    114 H114       27.6456   33.4480    1.6945 H         1 UNK         0.0806 
    115 H115       28.2980   29.8237    3.9181 H         1 UNK         0.3010 
    116 H116       30.2340   29.2627    4.7788 H         1 UNK         0.0829 
    117 H117       31.0700   30.4806    6.7491 H         1 UNK         0.0813 
    118 H118       30.1452   31.9099    6.3143 H         1 UNK         0.0813 
    119 H119       29.3162   30.4275    6.7920 H         1 UNK         0.0813 
    120 H120       30.2577   30.9464    2.2956 H         1 UNK         0.3038 
    121 H121       32.4391   32.6981    2.2054 H         1 UNK         0.0769 
    122 H122       31.1435   31.1086   -0.0780 H         1 UNK         0.0811 
    123 H123       32.1429   32.5404   -0.2655 H         1 UNK         0.0811 
    124 H124       30.5883   32.6669    0.5383 H         1 UNK         0.0811 
    125 H125       32.4752   29.1982    1.9950 H         1 UNK         0.3204 
    126 H126       35.2134   29.0917    0.8941 H         1 UNK         0.0748 
    127 H127       34.7955   26.5495    1.3612 H         1 UNK         0.0771 
    128 H128       33.1180   27.0218    1.6241 H         1 UNK         0.0771 
    129 H129       33.8964   27.3278    0.0807 H         1 UNK         0.0771 
    130 H130       33.9774   29.7411    3.9921 H         1 UNK         0.2980 
    131 H131       36.3178   28.5262    5.3740 H         1 UNK         0.0545 
    132 H132       37.5626   31.6320    6.6628 H         1 UNK         0.3459 
    133 H133       37.3492   29.9544    7.0900 H         1 UNK         0.3459 
    134 H134       35.0356   29.1040    7.4874 H         1 UNK         0.0616 
    135 H135       33.6701   29.5729    6.5110 H         1 UNK         0.0616 
    136 H136       32.4742   28.0256    4.8826 H         1 UNK         0.0634 
    137 H137       31.6945   27.6678    6.4041 H         1 UNK         0.0634 
@<TRIPOS>BOND
     1    1    2 1    
     2    1   72 1    
     3    1   73 1    
     4    1   74 1    
     5    2    3 2    
     6    2    4 am   BACKBONE|DICT|INTERRES
     7    4    5 1    
     8    4   75 1    
     9    5    6 1    
    10    5   35 1    
    11    5   76 1    
    12    6    7 1    
    13    6   77 1    
    14    6   78 1    
    15    7    8 1    
    16    8    9 1    
    17    8   79 1    
    18    8   80 1    
    19    9   10 ar   
    20    9   14 ar   
    21   10   11 ar   
    22   10   81 1    
    23   11   12 ar   
    24   11   71 1    
    25   12   13 ar   
    26   12   82 1    
    27   13   14 ar   
    28   13   15 1    
    29   14   83 1    
    30   15   16 1    
    31   15   84 1    
    32   15   85 1    
    33   16   17 1    
    34   17   18 1    
    35   17   86 1    
    36   17   87 1    
    37   18   19 1    
    38   18   37 1    
    39   18   88 1    
    40   19   20 am   BACKBONE|DICT|INTERRES
    41   19   89 1    
    42   20   21 2    
    43   20   22 1    
    44   22   23 1    
    45   22   24 1    
    46   22   90 1    
    47   23   91 1    
    48   23   92 1    
    49   23   93 1    
    50   24   25 am   BACKBONE|DICT|INTERRES
    51   24   94 1    
    52   25   26 2    
    53   25   27 1    
    54   27   28 1    
    55   27   29 1    
    56   27   95 1    
    57   28   96 1    
    58   28   97 1    
    59   28   98 1    
    60   29   30 am   BACKBONE|DICT|INTERRES
    61   29   99 1    
    62   30   31 2    
    63   30   32 1    
    64   32   33 1    
    65   32   34 1    
    66   32  100 1    
    67   33  101 1    
    68   33  102 1    
    69   33  103 1    
    70   34   35 am   BACKBONE|DICT|INTERRES
    71   34  104 1    
    72   35   36 2    
    73   37   38 2    
    74   37   39 am   BACKBONE|DICT|INTERRES
    75   39   40 1    
    76   39  105 1    
    77   40   41 1    
    78   40   42 1    
    79   40  106 1    
    80   41  107 1    
    81   41  108 1    
    82   41  109 1    
    83   42   43 2    
    84   42   44 am   BACKBONE|DICT|INTERRES
    85   44   45 1    
    86   44  110 1    
    87   45   46 1    
    88   45   47 1    
    89   45  111 1    
    90   46  112 1    
    91   46  113 1    
    92   46  114 1    
    93   47   48 2    
    94   47   49 am   BACKBONE|DICT|INTERRES
    95   49   50 1    
    96   49  115 1    
    97   50   51 1    
    98   50   52 1    
    99   50  116 1    
   100   51  117 1    
   101   51  118 1    
   102   51  119 1    
   103   52   53 2    
   104   52   54 am   BACKBONE|DICT|INTERRES
   105   54   55 1    
   106   54  120 1    
   107   55   56 1    
   108   55   57 1    
   109   55  121 1    
   110   56  122 1    
   111   56  123 1    
   112   56  124 1    
   113   57   58 2    
   114   57   59 am   BACKBONE|DICT|INTERRES
   115   59   60 1    
   116   59  125 1    
   117   60   61 1    
   118   60   62 1    
   119   60  126 1    
   120   61  127 1    
   121   61  128 1    
   122   61  129 1    
   123   62   63 2    
   124   62   64 am   BACKBONE|DICT|INTERRES
   125   64   65 1    
   126   64  130 1    
   127   65   66 1    
   128   65   69 1    
   129   65  131 1    
   130   66   67 am   BACKBONE|DICT|INTERRES
   131   66   68 2    
   132   67  132 1    
   133   67  133 1    
   134   69   70 1    
   135   69  134 1    
   136   69  135 1    
   137   70   71 1    
   138   71  136 1    
   139   71  137 1    
@<TRIPOS>SUBSTRUCTURE
     1 UNK         1 GROUP             0       ****    0 ROOT    
