@<TRIPOS>MOLECULE
3R136
137   139    1
SMALL
USER_CHARGES


@<TRIPOS>ATOM
      1 CA         29.9390   27.7130    4.3540 C.3       0 UNK        -0.1979 
      2 C          29.2920   26.8141    3.3132 C.2       0 UNK         0.4864 
      3 O          29.2503   27.1754    2.1368 O.2       0 UNK        -0.5359 
      4 N          28.7845   25.6550    3.7582 N.am      1 UNK        -0.4318 
      5 CA         28.2043   24.5624    2.9630 C.3       1 UNK         0.0824 
      6 C6         29.2699   23.7292    2.2043 C.3       12 UNK        -0.0944 
      7 S7         30.4872   22.9922    3.3525 S.3       12 UNK        -0.2672 
      8 C8         32.0069   22.9383    2.3483 C.3       12 UNK         0.0333 
      9 C9         32.4115   24.3111    1.8317 C.ar      12 UNK        -0.0807 
     10 C10        32.8322   25.3074    2.7162 C.ar      12 UNK        -0.0894 
     11 C11        33.1810   26.5761    2.2428 C.ar      12 UNK        -0.0804 
     12 C12        33.0858   26.8491    0.8735 C.ar      12 UNK        -0.0824 
     13 C13        32.6609   25.8604   -0.0214 C.ar      12 UNK        -0.0762 
     14 C14        32.3452   24.5886    0.4645 C.ar      12 UNK        -0.0782 
     15 C15        32.5474   26.1612   -1.5125 C.3       12 UNK         0.0230 
     16 S16        30.9223   25.6987   -2.2066 S.3       12 UNK        -0.2608 
     17 C17        29.8180   26.7812   -1.2462 C.3       12 UNK        -0.0989 
     18 CA         28.4366   26.9543   -1.9238 C.3       5 UNK         0.0716 
     19 N          27.6062   25.7534   -1.8348 N.am      5 UNK        -0.4135 
     20 C          27.0357   25.1372   -2.8744 C.2       4 UNK         0.5031 
     21 O          27.2252   25.4390   -4.0541 O.2       4 UNK        -0.5229 
     22 CA         26.0602   23.9960   -2.5379 C.3       4 UNK         0.0329 
     23 CB         26.8231   22.7480   -2.0614 C.3       4 UNK        -0.2001 
     24 N          25.0366   24.3536   -1.5476 N.am      4 UNK        -0.4303 
     25 C          24.1500   25.3567   -1.6563 C.2       3 UNK         0.5044 
     26 O          24.1300   26.1526   -2.5948 O.2       3 UNK        -0.5152 
     27 CA         23.0736   25.4878   -0.5575 C.3       3 UNK         0.0319 
     28 CB         21.6699   25.3260   -1.1664 C.3       3 UNK        -0.2001 
     29 N          23.2180   24.5051    0.5233 N.am      3 UNK        -0.4354 
     30 C          23.9578   24.5982    1.6371 C.2       2 UNK         0.4964 
     31 O          24.0003   23.6753    2.4511 O.2       2 UNK        -0.5047 
     32 CA         24.7525   25.8868    1.9376 C.3       2 UNK         0.0288 
     33 CB         23.9181   26.8533    2.7941 C.3       2 UNK        -0.2113 
     34 N          25.9906   25.5616    2.6456 N.am      2 UNK        -0.4145 
     35 C          27.0675   25.0459    2.0405 C.2       1 UNK         0.5006 
     36 O          27.1823   24.9793    0.8134 O.2       1 UNK        -0.5103 
     37 C          27.6648   28.1272   -1.3034 C.2       5 UNK         0.5055 
     38 O          27.4785   29.1429   -1.9750 O.2       5 UNK        -0.5220 
     39 N          27.2425   27.9663   -0.0377 N.am      6 UNK        -0.4450 
     40 CA         26.6355   28.9915    0.8247 C.3       6 UNK         0.0367 
     41 CB         25.2376   29.3982    0.3090 C.3       6 UNK        -0.1929 
     42 C          27.5764   30.1975    1.0284 C.2       6 UNK         0.5070 
     43 O          27.1427   31.3492    0.9561 O.2       6 UNK        -0.5237 
     44 N          28.8647   29.9010    1.2349 N.am      7 UNK        -0.4739 
     45 CA         29.9384   30.8820    1.3647 C.3       7 UNK         0.0276 
     46 CB         31.2772   30.1763    1.0999 C.3       7 UNK        -0.1927 
     47 C          29.9402   31.5454    2.7493 C.2       7 UNK         0.5013 
     48 O          29.6302   30.8937    3.7481 O.2       7 UNK        -0.5193 
     49 N          30.3494   32.8177    2.7952 N.am      8 UNK        -0.4253 
     50 CA         30.5237   33.5916    4.0255 C.3       8 UNK         0.0242 
     51 CB         30.1699   35.0646    3.7427 C.3       8 UNK        -0.2000 
     52 C          31.9537   33.4153    4.5690 C.2       8 UNK         0.4948 
     53 O          32.6895   34.3964    4.6954 O.2       8 UNK        -0.5275 
     54 N          32.3364   32.1654    4.8533 N.am      9 UNK        -0.4246 
     55 CA         33.6507   31.7865    5.3627 C.3       9 UNK         0.0261 
     56 CB         34.6332   31.5967    4.1925 C.3       9 UNK        -0.1959 
     57 C          33.5214   30.4973    6.1770 C.2       9 UNK         0.5033 
     58 O          32.7106   29.6354    5.8297 O.2       9 UNK        -0.5390 
     59 N          34.3460   30.3766    7.2226 N.am      10 UNK        -0.4215 
     60 CA         34.4648   29.1869    8.0628 C.3       10 UNK         0.0240 
     61 CB         34.6656   29.6220    9.5270 C.3       10 UNK        -0.1982 
     62 C          35.6285   28.3336    7.5382 C.2       10 UNK         0.4970 
     63 O          36.7351   28.4028    8.0764 O.2       10 UNK        -0.4916 
     64 N          35.3661   27.5859    6.4607 N.am      11 UNK        -0.4279 
     65 CA         36.3542   26.7431    5.7639 C.3       11 UNK         0.1003 
     66 C          36.8219   25.4854    6.5548 C.2       11 UNK         0.5709 
     67 N          36.1411   25.0739    7.6183 N.am      11 UNK        -0.7358 
     68 O          37.8268   24.8751    6.1976 O.2       11 UNK        -0.4999 
     69 C69        35.8758   26.3446    4.3432 C.3       12 UNK        -0.0954 
     70 S70        35.4519   27.7798    3.2977 S.3       12 UNK        -0.2268 
     71 C71        33.6382   27.6576    3.2122 C.3       12 UNK         0.0203 
     72 H72        30.7536   28.2845    3.9109 H         1 UNK         0.0888 
     73 H73        29.2076   28.4178    4.7476 H         1 UNK         0.0888 
     74 H74        30.3487   27.1386    5.1845 H         1 UNK         0.0888 
     75 H75        28.8522   25.4572    4.7465 H         1 UNK         0.3017 
     76 H76        27.7288   23.8902    3.6793 H         1 UNK         0.0873 
     77 H77        29.7691   24.3556    1.4650 H         1 UNK         0.0745 
     78 H78        28.8013   22.9151    1.6482 H         1 UNK         0.0745 
     79 H79        31.8590   22.2390    1.5238 H         1 UNK         0.0705 
     80 H80        32.8170   22.5305    2.9544 H         1 UNK         0.0705 
     81 H81        32.8729   25.0930    3.7749 H         1 UNK         0.1334 
     82 H82        33.3443   27.8333    0.5077 H         1 UNK         0.1417 
     83 H83        32.0171   23.8220   -0.2243 H         1 UNK         0.1562 
     84 H84        33.3256   25.6101   -2.0419 H         1 UNK         0.0748 
     85 H85        32.7284   27.2186   -1.7117 H         1 UNK         0.0748 
     86 H86        30.3130   27.7472   -1.1252 H         1 UNK         0.0940 
     87 H87        29.7144   26.3612   -0.2448 H         1 UNK         0.0940 
     88 H88        28.6102   27.2161   -2.9700 H         1 UNK         0.0703 
     89 H89        27.3935   25.4161   -0.8968 H         1 UNK         0.3081 
     90 H90        25.5354   23.7366   -3.4597 H         1 UNK         0.0719 
     91 H91        27.5886   22.4597   -2.7832 H         1 UNK         0.0809 
     92 H92        27.3236   22.9172   -1.1070 H         1 UNK         0.0809 
     93 H93        26.1548   21.8951   -1.9431 H         1 UNK         0.0809 
     94 H94        24.9785   23.7603   -0.7331 H         1 UNK         0.2990 
     95 H95        23.1300   26.4998   -0.1552 H         1 UNK         0.0690 
     96 H96        20.8929   25.4556   -0.4125 H         1 UNK         0.0788 
     97 H97        21.5362   24.3436   -1.6212 H         1 UNK         0.0788 
     98 H98        21.4889   26.0710   -1.9427 H         1 UNK         0.0788 
     99 H99        22.7030   23.6469    0.3862 H         1 UNK         0.2993 
    100 H100       25.0271   26.3835    1.0084 H         1 UNK         0.0949 
    101 H101       23.0055   27.1488    2.2748 H         1 UNK         0.0767 
    102 H102       23.6206   26.3995    3.7405 H         1 UNK         0.0767 
    103 H103       24.4702   27.7654    3.0201 H         1 UNK         0.0767 
    104 H104       25.9563   25.5774    3.6547 H         1 UNK         0.3013 
    105 H105       27.5062   27.1104    0.4378 H         1 UNK         0.3121 
    106 H106       26.5122   28.5330    1.8067 H         1 UNK         0.0774 
    107 H107       24.5996   28.5326    0.1406 H         1 UNK         0.0815 
    108 H108       24.7303   30.0396    1.0305 H         1 UNK         0.0815 
    109 H109       25.2975   29.9518   -0.6284 H         1 UNK         0.0815 
    110 H110       29.1129   28.9257    1.3874 H         1 UNK         0.2987 
    111 H111       29.7953   31.6551    0.6063 H         1 UNK         0.0949 
    112 H112       31.3411   29.8246    0.0703 H         1 UNK         0.0806 
    113 H113       32.1231   30.8442    1.2689 H         1 UNK         0.0806 
    114 H114       31.4007   29.3128    1.7524 H         1 UNK         0.0806 
    115 H115       30.6320   33.2718    1.9381 H         1 UNK         0.3010 
    116 H116       29.8368   33.2292    4.7938 H         1 UNK         0.0829 
    117 H117       30.2630   35.6688    4.6462 H         1 UNK         0.0813 
    118 H118       30.8249   35.5022    2.9882 H         1 UNK         0.0813 
    119 H119       29.1421   35.1646    3.3933 H         1 UNK         0.0813 
    120 H120       31.6732   31.4022    4.7602 H         1 UNK         0.3038 
    121 H121       34.0214   32.5748    6.0219 H         1 UNK         0.0769 
    122 H122       35.6124   31.2730    4.5478 H         1 UNK         0.0811 
    123 H123       34.7794   32.5260    3.6420 H         1 UNK         0.0811 
    124 H124       34.2774   30.8441    3.4880 H         1 UNK         0.0811 
    125 H125       35.0106   31.1160    7.4046 H         1 UNK         0.3204 
    126 H126       33.5511   28.5901    8.0143 H         1 UNK         0.0748 
    127 H127       34.7816   28.7548   10.1784 H         1 UNK         0.0771 
    128 H128       35.5521   30.2453    9.6519 H         1 UNK         0.0771 
    129 H129       33.8073   30.1872    9.8910 H         1 UNK         0.0771 
    130 H130       34.4411   27.6201    6.0580 H         1 UNK         0.2980 
    131 H131       37.2496   27.3549    5.6372 H         1 UNK         0.0545 
    132 H132       35.3163   25.5656    7.9208 H         1 UNK         0.3459 
    133 H133       36.4586   24.2611    8.1224 H         1 UNK         0.3459 
    134 H134       36.6583   25.7908    3.8211 H         1 UNK         0.0616 
    135 H135       35.0257   25.6668    4.4107 H         1 UNK         0.0616 
    136 H136       33.2330   27.4761    4.2082 H         1 UNK         0.0634 
    137 H137       33.2459   28.6247    2.9005 H         1 UNK         0.0634 
@<TRIPOS>BOND
     1    1    2 1    
     2    1   72 1    
     3    1   73 1    
     4    1   74 1    
     5    2    3 2    
     6    2    4 am   BACKBONE|DICT|INTERRES
     7    4    5 1    
     8    4   75 1    
     9    5    6 1    
    10    5   35 1    
    11    5   76 1    
    12    6    7 1    
    13    6   77 1    
    14    6   78 1    
    15    7    8 1    
    16    8    9 1    
    17    8   79 1    
    18    8   80 1    
    19    9   10 ar   
    20    9   14 ar   
    21   10   11 ar   
    22   10   81 1    
    23   11   12 ar   
    24   11   71 1    
    25   12   13 ar   
    26   12   82 1    
    27   13   14 ar   
    28   13   15 1    
    29   14   83 1    
    30   15   16 1    
    31   15   84 1    
    32   15   85 1    
    33   16   17 1    
    34   17   18 1    
    35   17   86 1    
    36   17   87 1    
    37   18   19 1    
    38   18   37 1    
    39   18   88 1    
    40   19   20 am   BACKBONE|DICT|INTERRES
    41   19   89 1    
    42   20   21 2    
    43   20   22 1    
    44   22   23 1    
    45   22   24 1    
    46   22   90 1    
    47   23   91 1    
    48   23   92 1    
    49   23   93 1    
    50   24   25 am   BACKBONE|DICT|INTERRES
    51   24   94 1    
    52   25   26 2    
    53   25   27 1    
    54   27   28 1    
    55   27   29 1    
    56   27   95 1    
    57   28   96 1    
    58   28   97 1    
    59   28   98 1    
    60   29   30 am   BACKBONE|DICT|INTERRES
    61   29   99 1    
    62   30   31 2    
    63   30   32 1    
    64   32   33 1    
    65   32   34 1    
    66   32  100 1    
    67   33  101 1    
    68   33  102 1    
    69   33  103 1    
    70   34   35 am   BACKBONE|DICT|INTERRES
    71   34  104 1    
    72   35   36 2    
    73   37   38 2    
    74   37   39 am   BACKBONE|DICT|INTERRES
    75   39   40 1    
    76   39  105 1    
    77   40   41 1    
    78   40   42 1    
    79   40  106 1    
    80   41  107 1    
    81   41  108 1    
    82   41  109 1    
    83   42   43 2    
    84   42   44 am   BACKBONE|DICT|INTERRES
    85   44   45 1    
    86   44  110 1    
    87   45   46 1    
    88   45   47 1    
    89   45  111 1    
    90   46  112 1    
    91   46  113 1    
    92   46  114 1    
    93   47   48 2    
    94   47   49 am   BACKBONE|DICT|INTERRES
    95   49   50 1    
    96   49  115 1    
    97   50   51 1    
    98   50   52 1    
    99   50  116 1    
   100   51  117 1    
   101   51  118 1    
   102   51  119 1    
   103   52   53 2    
   104   52   54 am   BACKBONE|DICT|INTERRES
   105   54   55 1    
   106   54  120 1    
   107   55   56 1    
   108   55   57 1    
   109   55  121 1    
   110   56  122 1    
   111   56  123 1    
   112   56  124 1    
   113   57   58 2    
   114   57   59 am   BACKBONE|DICT|INTERRES
   115   59   60 1    
   116   59  125 1    
   117   60   61 1    
   118   60   62 1    
   119   60  126 1    
   120   61  127 1    
   121   61  128 1    
   122   61  129 1    
   123   62   63 2    
   124   62   64 am   BACKBONE|DICT|INTERRES
   125   64   65 1    
   126   64  130 1    
   127   65   66 1    
   128   65   69 1    
   129   65  131 1    
   130   66   67 am   BACKBONE|DICT|INTERRES
   131   66   68 2    
   132   67  132 1    
   133   67  133 1    
   134   69   70 1    
   135   69  134 1    
   136   69  135 1    
   137   70   71 1    
   138   71  136 1    
   139   71  137 1    
@<TRIPOS>SUBSTRUCTURE
     1 UNK         1 GROUP             0       ****    0 ROOT    
