@<TRIPOS>MOLECULE
3R136
137   139    1
SMALL
USER_CHARGES


@<TRIPOS>ATOM
      1 CA         29.6642   22.9180   -3.1966 C.3       0 UNK        -0.1979 
      2 C          29.4230   23.1338   -1.7113 C.2       0 UNK         0.4864 
      3 O          29.0304   24.2323   -1.3120 O.2       0 UNK        -0.5359 
      4 N          29.6290   22.0932   -0.8915 N.am      1 UNK        -0.4318 
      5 CA         29.5295   22.0802    0.5787 C.3       1 UNK         0.0824 
      6 C6         30.2803   20.8605    1.1760 C.3       12 UNK        -0.0944 
      7 S7         32.0737   20.9495    0.8508 S.3       12 UNK        -0.2672 
      8 C8         32.7133   21.5078    2.4640 C.3       12 UNK         0.0333 
      9 C9         32.1574   22.8681    2.8652 C.ar      12 UNK        -0.0807 
     10 C10        32.6653   24.0342    2.2882 C.ar      12 UNK        -0.0894 
     11 C11        32.1650   25.2845    2.6611 C.ar      12 UNK        -0.0804 
     12 C12        31.1547   25.3646    3.6238 C.ar      12 UNK        -0.0824 
     13 C13        30.6106   24.2030    4.1890 C.ar      12 UNK        -0.0762 
     14 C14        31.1322   22.9614    3.8114 C.ar      12 UNK        -0.0782 
     15 C15        29.4750   24.2235    5.2166 C.3       12 UNK         0.0230 
     16 S16        28.4999   25.7659    5.3299 S.3       12 UNK        -0.2608 
     17 C17        27.7775   25.9145    3.6581 C.3       12 UNK        -0.0989 
     18 CA         28.1332   27.2822    3.0140 C.3       5 UNK         0.0716 
     19 N          28.4624   27.1587    1.5920 N.am      5 UNK        -0.4135 
     20 C          29.1320   28.0678    0.8686 C.2       4 UNK         0.5031 
     21 O          29.5578   29.1271    1.3275 O.2       4 UNK        -0.5229 
     22 CA         29.2993   27.7683   -0.6303 C.3       4 UNK         0.0329 
     23 CB         30.6472   27.0815   -0.8982 C.3       4 UNK        -0.2001 
     24 N          28.2101   26.9391   -1.1570 N.am      4 UNK        -0.4303 
     25 C          26.9510   27.3728   -1.3212 C.2       3 UNK         0.5044 
     26 O          26.5924   28.5264   -1.0875 O.2       3 UNK        -0.5152 
     27 CA         25.9076   26.3354   -1.7660 C.3       3 UNK         0.0319 
     28 CB         26.0528   26.0260   -3.2648 C.3       3 UNK        -0.2001 
     29 N          25.9812   25.0891   -1.0000 N.am      3 UNK        -0.4354 
     30 C          25.7500   24.9718    0.3173 C.2       2 UNK         0.4964 
     31 O          25.4332   25.9068    1.0509 O.2       2 UNK        -0.5047 
     32 CA         25.9918   23.5868    0.9231 C.3       2 UNK         0.0288 
     33 CB         24.9458   22.5625    0.4419 C.3       2 UNK        -0.2113 
     34 N          27.3451   23.1768    0.5682 N.am      2 UNK        -0.4145 
     35 C          28.0769   22.1999    1.1054 C.2       1 UNK         0.5006 
     36 O          27.6567   21.4367    1.9772 O.2       1 UNK        -0.5103 
     37 C          27.0836   28.3762    3.3176 C.2       5 UNK         0.5055 
     38 O          26.8919   28.7089    4.4872 O.2       5 UNK        -0.5220 
     39 N          26.4808   28.9920    2.2874 N.am      6 UNK        -0.4450 
     40 CA         25.7156   30.2384    2.4084 C.3       6 UNK         0.0367 
     41 CB         25.0589   30.5695    1.0599 C.3       6 UNK        -0.1929 
     42 C          26.5728   31.4258    2.8977 C.2       6 UNK         0.5070 
     43 O          26.0318   32.3423    3.5158 O.2       6 UNK        -0.5237 
     44 N          27.8907   31.3710    2.6514 N.am      7 UNK        -0.4739 
     45 CA         28.8916   32.3004    3.1817 C.3       7 UNK         0.0276 
     46 CB         29.9309   32.5729    2.0814 C.3       7 UNK        -0.1927 
     47 C          29.5655   31.7664    4.4639 C.2       7 UNK         0.5013 
     48 O          30.5528   32.3524    4.9120 O.2       7 UNK        -0.5193 
     49 N          29.0433   30.6680    5.0331 N.am      8 UNK        -0.4253 
     50 CA         29.5597   29.9403    6.1953 C.3       8 UNK         0.0242 
     51 CB         29.3522   30.7638    7.4879 C.3       8 UNK        -0.2000 
     52 C          31.0060   29.4672    5.9568 C.2       8 UNK         0.4948 
     53 O          31.2444   28.7352    4.9964 O.2       8 UNK        -0.5275 
     54 N          31.9393   29.8944    6.8165 N.am      9 UNK        -0.4246 
     55 CA         33.3634   29.5681    6.7354 C.3       9 UNK         0.0261 
     56 CB         34.0125   29.8311    8.1046 C.3       9 UNK        -0.1959 
     57 C          34.1209   30.3244    5.6279 C.2       9 UNK         0.5033 
     58 O          35.2404   29.9239    5.3022 O.2       9 UNK        -0.5390 
     59 N          33.5388   31.3949    5.0645 N.am      10 UNK        -0.4215 
     60 CA         34.1463   32.1961    3.9976 C.3       10 UNK         0.0240 
     61 CB         33.6039   33.6362    4.0593 C.3       10 UNK        -0.1982 
     62 C          33.9393   31.5315    2.6242 C.2       10 UNK         0.4970 
     63 O          33.2631   32.0901    1.7597 O.2       10 UNK        -0.4916 
     64 N          34.5218   30.3383    2.4609 N.am      11 UNK        -0.4279 
     65 CA         34.4422   29.5029    1.2527 C.3       11 UNK         0.1003 
     66 C          35.1026   30.1105   -0.0202 C.2       11 UNK         0.5709 
     67 N          35.9757   31.1051    0.0903 N.am      11 UNK        -0.7358 
     68 O          34.8144   29.6680   -1.1295 O.2       11 UNK        -0.4999 
     69 C69        34.9931   28.0756    1.5105 C.3       12 UNK        -0.0954 
     70 S70        34.1565   27.1934    2.8709 S.3       12 UNK        -0.2268 
     71 C71        32.7014   26.5430    1.9996 C.3       12 UNK         0.0203 
     72 H72        28.7450   23.0931   -3.7546 H         1 UNK         0.0888 
     73 H73        30.4196   23.6161   -3.5559 H         1 UNK         0.0888 
     74 H74        30.0066   21.9060   -3.4116 H         1 UNK         0.0888 
     75 H75        29.9332   21.2188   -1.2952 H         1 UNK         0.3017 
     76 H76        30.0320   22.9810    0.9379 H         1 UNK         0.0873 
     77 H77        29.8943   19.9310    0.7539 H         1 UNK         0.0745 
     78 H78        30.1267   20.7813    2.2531 H         1 UNK         0.0745 
     79 H79        32.4838   20.7572    3.2219 H         1 UNK         0.0705 
     80 H80        33.8017   21.5622    2.4114 H         1 UNK         0.0705 
     81 H81        33.4492   23.9673    1.5459 H         1 UNK         0.1334 
     82 H82        30.7978   26.3386    3.9224 H         1 UNK         0.1417 
     83 H83        30.7329   22.0594    4.2555 H         1 UNK         0.1562 
     84 H84        29.9012   24.0201    6.1997 H         1 UNK         0.0748 
     85 H85        28.7826   23.4061    5.0073 H         1 UNK         0.0748 
     86 H86        26.6978   25.7604    3.7151 H         1 UNK         0.0940 
     87 H87        28.1543   25.0915    3.0492 H         1 UNK         0.0940 
     88 H88        29.0478   27.6527    3.4811 H         1 UNK         0.0703 
     89 H89        28.1093   26.3436    1.1158 H         1 UNK         0.3081 
     90 H90        29.2907   28.7218   -1.1628 H         1 UNK         0.0719 
     91 H91        30.7362   26.1388   -0.3567 H         1 UNK         0.0809 
     92 H92        30.7809   26.8702   -1.9592 H         1 UNK         0.0809 
     93 H93        31.4758   27.7201   -0.5890 H         1 UNK         0.0809 
     94 H94        28.4356   25.9655   -1.3563 H         1 UNK         0.2990 
     95 H95        24.9188   26.7688   -1.6011 H         1 UNK         0.0690 
     96 H96        25.9942   26.9392   -3.8589 H         1 UNK         0.0788 
     97 H97        25.2584   25.3649   -3.6119 H         1 UNK         0.0788 
     98 H98        27.0083   25.5503   -3.4908 H         1 UNK         0.0788 
     99 H99        26.2319   24.2614   -1.5211 H         1 UNK         0.2993 
    100 H100       25.9276   23.6756    2.0098 H         1 UNK         0.0949 
    101 H101       25.0661   21.6051    0.9489 H         1 UNK         0.0767 
    102 H102       23.9338   22.9116    0.6513 H         1 UNK         0.0767 
    103 H103       25.0155   22.3804   -0.6310 H         1 UNK         0.0767 
    104 H104       27.8183   23.7417   -0.1372 H         1 UNK         0.3013 
    105 H105       26.6531   28.6573    1.3484 H         1 UNK         0.3121 
    106 H106       24.9258   30.0750    3.1447 H         1 UNK         0.0774 
    107 H107       24.4291   31.4564    1.1408 H         1 UNK         0.0815 
    108 H108       25.8030   30.7681    0.2875 H         1 UNK         0.0815 
    109 H109       24.4260   29.7522    0.7133 H         1 UNK         0.0815 
    110 H110       28.2627   30.5780    2.1376 H         1 UNK         0.2987 
    111 H111       28.4174   33.2491    3.4418 H         1 UNK         0.0949 
    112 H112       30.4933   31.6731    1.8283 H         1 UNK         0.0806 
    113 H113       30.6515   33.3275    2.3974 H         1 UNK         0.0806 
    114 H114       29.4598   32.9413    1.1702 H         1 UNK         0.0806 
    115 H115       28.2317   30.2437    4.5989 H         1 UNK         0.3010 
    116 H116       28.9596   29.0331    6.2828 H         1 UNK         0.0829 
    117 H117       29.9105   31.7007    7.4797 H         1 UNK         0.0813 
    118 H118       28.2996   31.0144    7.6208 H         1 UNK         0.0813 
    119 H119       29.6543   30.1988    8.3709 H         1 UNK         0.0813 
    120 H120       31.6545   30.5083    7.5661 H         1 UNK         0.3038 
    121 H121       33.4562   28.5024    6.5140 H         1 UNK         0.0769 
    122 H122       33.9479   30.8825    8.3876 H         1 UNK         0.0811 
    123 H123       35.0697   29.5616    8.0940 H         1 UNK         0.0811 
    124 H124       33.5391   29.2406    8.8892 H         1 UNK         0.0811 
    125 H125       32.5847   31.6309    5.3161 H         1 UNK         0.3204 
    126 H126       35.2238   32.2551    4.1669 H         1 UNK         0.0748 
    127 H127       34.0860   34.2653    3.3101 H         1 UNK         0.0771 
    128 H128       32.5315   33.6776    3.8739 H         1 UNK         0.0771 
    129 H129       33.7924   34.0896    5.0325 H         1 UNK         0.0771 
    130 H130       35.0206   29.9424    3.2504 H         1 UNK         0.2980 
    131 H131       33.3809   29.4063    1.0153 H         1 UNK         0.0545 
    132 H132       36.3928   31.4904   -0.7422 H         1 UNK         0.3459 
    133 H133       36.2192   31.4740    0.9951 H         1 UNK         0.3459 
    134 H134       34.9289   27.4634    0.6090 H         1 UNK         0.0616 
    135 H135       36.0552   28.1269    1.7572 H         1 UNK         0.0616 
    136 H136       31.9331   27.3172    1.9728 H         1 UNK         0.0634 
    137 H137       32.9547   26.3207    0.9625 H         1 UNK         0.0634 
@<TRIPOS>BOND
     1    1    2 1    
     2    1   72 1    
     3    1   73 1    
     4    1   74 1    
     5    2    3 2    
     6    2    4 am   BACKBONE|DICT|INTERRES
     7    4    5 1    
     8    4   75 1    
     9    5    6 1    
    10    5   35 1    
    11    5   76 1    
    12    6    7 1    
    13    6   77 1    
    14    6   78 1    
    15    7    8 1    
    16    8    9 1    
    17    8   79 1    
    18    8   80 1    
    19    9   10 ar   
    20    9   14 ar   
    21   10   11 ar   
    22   10   81 1    
    23   11   12 ar   
    24   11   71 1    
    25   12   13 ar   
    26   12   82 1    
    27   13   14 ar   
    28   13   15 1    
    29   14   83 1    
    30   15   16 1    
    31   15   84 1    
    32   15   85 1    
    33   16   17 1    
    34   17   18 1    
    35   17   86 1    
    36   17   87 1    
    37   18   19 1    
    38   18   37 1    
    39   18   88 1    
    40   19   20 am   BACKBONE|DICT|INTERRES
    41   19   89 1    
    42   20   21 2    
    43   20   22 1    
    44   22   23 1    
    45   22   24 1    
    46   22   90 1    
    47   23   91 1    
    48   23   92 1    
    49   23   93 1    
    50   24   25 am   BACKBONE|DICT|INTERRES
    51   24   94 1    
    52   25   26 2    
    53   25   27 1    
    54   27   28 1    
    55   27   29 1    
    56   27   95 1    
    57   28   96 1    
    58   28   97 1    
    59   28   98 1    
    60   29   30 am   BACKBONE|DICT|INTERRES
    61   29   99 1    
    62   30   31 2    
    63   30   32 1    
    64   32   33 1    
    65   32   34 1    
    66   32  100 1    
    67   33  101 1    
    68   33  102 1    
    69   33  103 1    
    70   34   35 am   BACKBONE|DICT|INTERRES
    71   34  104 1    
    72   35   36 2    
    73   37   38 2    
    74   37   39 am   BACKBONE|DICT|INTERRES
    75   39   40 1    
    76   39  105 1    
    77   40   41 1    
    78   40   42 1    
    79   40  106 1    
    80   41  107 1    
    81   41  108 1    
    82   41  109 1    
    83   42   43 2    
    84   42   44 am   BACKBONE|DICT|INTERRES
    85   44   45 1    
    86   44  110 1    
    87   45   46 1    
    88   45   47 1    
    89   45  111 1    
    90   46  112 1    
    91   46  113 1    
    92   46  114 1    
    93   47   48 2    
    94   47   49 am   BACKBONE|DICT|INTERRES
    95   49   50 1    
    96   49  115 1    
    97   50   51 1    
    98   50   52 1    
    99   50  116 1    
   100   51  117 1    
   101   51  118 1    
   102   51  119 1    
   103   52   53 2    
   104   52   54 am   BACKBONE|DICT|INTERRES
   105   54   55 1    
   106   54  120 1    
   107   55   56 1    
   108   55   57 1    
   109   55  121 1    
   110   56  122 1    
   111   56  123 1    
   112   56  124 1    
   113   57   58 2    
   114   57   59 am   BACKBONE|DICT|INTERRES
   115   59   60 1    
   116   59  125 1    
   117   60   61 1    
   118   60   62 1    
   119   60  126 1    
   120   61  127 1    
   121   61  128 1    
   122   61  129 1    
   123   62   63 2    
   124   62   64 am   BACKBONE|DICT|INTERRES
   125   64   65 1    
   126   64  130 1    
   127   65   66 1    
   128   65   69 1    
   129   65  131 1    
   130   66   67 am   BACKBONE|DICT|INTERRES
   131   66   68 2    
   132   67  132 1    
   133   67  133 1    
   134   69   70 1    
   135   69  134 1    
   136   69  135 1    
   137   70   71 1    
   138   71  136 1    
   139   71  137 1    
@<TRIPOS>SUBSTRUCTURE
     1 UNK         1 GROUP             0       ****    0 ROOT    
