@<TRIPOS>MOLECULE
3R136
137   139    1
SMALL
USER_CHARGES


@<TRIPOS>ATOM
      1 CA         32.8158   22.3172   -1.0992 C.3       0 UNK        -0.1979 
      2 C          31.5671   21.9156   -0.3285 C.2       0 UNK         0.4864 
      3 O          31.0956   20.7874   -0.4834 O.2       0 UNK        -0.5359 
      4 N          31.0458   22.8360    0.4969 N.am      1 UNK        -0.4318 
      5 CA         29.8326   22.7028    1.3225 C.3       1 UNK         0.0824 
      6 C6         29.9286   21.5504    2.3693 C.3       12 UNK        -0.0944 
      7 S7         31.4050   21.6790    3.4417 S.3       12 UNK        -0.2672 
      8 C8         30.6828   22.0004    5.0825 C.3       12 UNK         0.0333 
      9 C9         30.0716   23.3903    5.1666 C.ar      12 UNK        -0.0807 
     10 C10        30.8845   24.5044    5.3925 C.ar      12 UNK        -0.0894 
     11 C11        30.3298   25.7872    5.4472 C.ar      12 UNK        -0.0804 
     12 C12        28.9513   25.9513    5.2875 C.ar      12 UNK        -0.0824 
     13 C13        28.1339   24.8439    5.0505 C.ar      12 UNK        -0.0762 
     14 C14        28.6952   23.5654    5.0070 C.ar      12 UNK        -0.0782 
     15 C15        26.6495   25.0208    4.7962 C.3       12 UNK         0.0230 
     16 S16        26.3348   25.1658    3.0112 S.3       12 UNK        -0.2608 
     17 C17        26.5144   26.9559    2.7190 C.3       12 UNK        -0.0989 
     18 CA         27.8127   27.3502    1.9690 C.3       5 UNK         0.0716 
     19 N          27.8981   26.7470    0.6288 N.am      5 UNK        -0.4135 
     20 C          28.9245   26.9200   -0.2206 C.2       4 UNK         0.5031 
     21 O          29.9455   27.5385    0.0783 O.2       4 UNK        -0.5229 
     22 CA         28.8211   26.3306   -1.6407 C.3       4 UNK         0.0329 
     23 CB         30.1361   25.6513   -2.0664 C.3       4 UNK        -0.2001 
     24 N          27.7271   25.3723   -1.8036 N.am      4 UNK        -0.4303 
     25 C          26.5248   25.6508   -2.3265 C.2       3 UNK         0.5044 
     26 O          26.1690   26.7821   -2.6574 O.2       3 UNK        -0.5152 
     27 CA         25.5534   24.4721   -2.5327 C.3       3 UNK         0.0319 
     28 CB         25.5864   24.0002   -3.9954 C.3       3 UNK        -0.2001 
     29 N          25.8412   23.3335   -1.6579 N.am      3 UNK        -0.4354 
     30 C          25.5771   23.3066   -0.3458 C.2       2 UNK         0.4964 
     31 O          24.9641   24.2002    0.2354 O.2       2 UNK        -0.5047 
     32 CA         26.0833   22.0886    0.4519 C.3       2 UNK         0.0288 
     33 CB         26.0756   20.7791   -0.3688 C.3       2 UNK        -0.2113 
     34 N          27.4030   22.3045    1.0662 N.am      2 UNK        -0.4145 
     35 C          28.5534   22.6179    0.4470 C.2       1 UNK         0.5006 
     36 O          28.6177   22.8555   -0.7628 O.2       1 UNK        -0.5103 
     37 C          27.8960   28.8920    1.8980 C.2       5 UNK         0.5055 
     38 O          27.2490   29.4947    1.0368 O.2       5 UNK        -0.5220 
     39 N          28.6472   29.4984    2.8223 N.am      6 UNK        -0.4450 
     40 CA         28.8024   30.9429    2.9651 C.3       6 UNK         0.0367 
     41 CB         30.1045   31.3872    2.2799 C.3       6 UNK        -0.1929 
     42 C          28.8232   31.2984    4.4552 C.2       6 UNK         0.5070 
     43 O          29.2033   30.4634    5.2791 O.2       6 UNK        -0.5237 
     44 N          28.4167   32.5330    4.7728 N.am      7 UNK        -0.4739 
     45 CA         28.3603   33.0485    6.1439 C.3       7 UNK         0.0276 
     46 CB         27.2341   34.0911    6.2432 C.3       7 UNK        -0.1927 
     47 C          29.6904   33.6598    6.6157 C.2       7 UNK         0.5013 
     48 O          29.9551   33.6532    7.8187 O.2       7 UNK        -0.5193 
     49 N          30.4882   34.1956    5.6819 N.am      8 UNK        -0.4253 
     50 CA         31.7317   34.9170    5.9627 C.3       8 UNK         0.0242 
     51 CB         31.4187   36.3611    6.4110 C.3       8 UNK        -0.2000 
     52 C          32.6808   34.8547    4.7556 C.2       8 UNK         0.4948 
     53 O          33.2088   35.8838    4.3298 O.2       8 UNK        -0.5275 
     54 N          32.8798   33.6474    4.2186 N.am      9 UNK        -0.4246 
     55 CA         33.8171   33.3354    3.1418 C.3       9 UNK         0.0261 
     56 CB         33.2105   33.7011    1.7721 C.3       9 UNK        -0.1959 
     57 C          34.1615   31.8436    3.2294 C.2       9 UNK         0.5033 
     58 O          33.5334   31.1196    4.0076 O.2       9 UNK        -0.5390 
     59 N          35.1478   31.4080    2.4355 N.am      10 UNK        -0.4215 
     60 CA         35.5418   30.0035    2.3104 C.3       10 UNK         0.0240 
     61 CB         36.8711   29.9080    1.5428 C.3       10 UNK        -0.1982 
     62 C          34.4420   29.1891    1.6089 C.2       10 UNK         0.4970 
     63 O          34.0178   29.5650    0.5141 O.2       10 UNK        -0.4916 
     64 N          34.0132   28.0991    2.2519 N.am      11 UNK        -0.4279 
     65 CA         32.9158   27.2304    1.7952 C.3       11 UNK         0.1003 
     66 C          33.3416   26.1218    0.7893 C.2       11 UNK         0.5709 
     67 N          34.5926   26.0641    0.3478 N.am      11 UNK        -0.7358 
     68 O          32.5239   25.2890    0.4060 O.2       11 UNK        -0.4999 
     69 C69        32.1338   26.6339    2.9927 C.3       12 UNK        -0.0954 
     70 S70        31.4249   27.9181    4.0758 S.3       12 UNK        -0.2268 
     71 C71        31.2243   27.0021    5.6341 C.3       12 UNK         0.0203 
     72 H72        33.4763   22.9289   -0.4853 H         1 UNK         0.0888 
     73 H73        33.3742   21.4360   -1.4143 H         1 UNK         0.0888 
     74 H74        32.5426   22.8865   -1.9874 H         1 UNK         0.0888 
     75 H75        31.4991   23.7471    0.5372 H         1 UNK         0.3017 
     76 H76        29.7482   23.6423    1.8720 H         1 UNK         0.0873 
     77 H77        29.9611   20.5804    1.8711 H         1 UNK         0.0745 
     78 H78        29.0438   21.5186    3.0039 H         1 UNK         0.0745 
     79 H79        31.4660   21.9024    5.8357 H         1 UNK         0.0705 
     80 H80        29.9422   21.2333    5.3144 H         1 UNK         0.0705 
     81 H81        31.9523   24.3728    5.5026 H         1 UNK         0.1334 
     82 H82        28.5232   26.9440    5.3152 H         1 UNK         0.1417 
     83 H83        28.0595   22.7094    4.8282 H         1 UNK         0.1562 
     84 H84        26.2576   25.8852    5.3340 H         1 UNK         0.0748 
     85 H85        26.1041   24.1567    5.1787 H         1 UNK         0.0748 
     86 H86        26.4524   27.4768    3.6763 H         1 UNK         0.0940 
     87 H87        25.6399   27.2828    2.1523 H         1 UNK         0.0940 
     88 H88        28.6705   26.9847    2.5376 H         1 UNK         0.0703 
     89 H89        27.0854   26.2381    0.3138 H         1 UNK         0.3081 
     90 H90        28.6631   27.1778   -2.3112 H         1 UNK         0.0719 
     91 H91        30.0736   25.2660   -3.0840 H         1 UNK         0.0809 
     92 H92        30.9721   26.3515   -2.0381 H         1 UNK         0.0809 
     93 H93        30.3899   24.8206   -1.4092 H         1 UNK         0.0809 
     94 H94        27.9352   24.4126   -1.5335 H         1 UNK         0.2990 
     95 H95        24.5458   24.8327   -2.3141 H         1 UNK         0.0690 
     96 H96        25.3474   24.8194   -4.6751 H         1 UNK         0.0788 
     97 H97        24.8571   23.2098   -4.1740 H         1 UNK         0.0788 
     98 H98        26.5700   23.6207   -4.2754 H         1 UNK         0.0788 
     99 H99        26.3831   22.5761   -2.0501 H         1 UNK         0.2993 
    100 H100       25.3795   21.9588    1.2760 H         1 UNK         0.0949 
    101 H101       26.8292   20.7745   -1.1568 H         1 UNK         0.0767 
    102 H102       26.2698   19.9186    0.2717 H         1 UNK         0.0767 
    103 H103       25.1047   20.6152   -0.8386 H         1 UNK         0.0767 
    104 H104       27.4214   22.2010    2.0703 H         1 UNK         0.3013 
    105 H105       29.1281   28.9574    3.5316 H         1 UNK         0.3121 
    106 H106       27.9565   31.4575    2.5037 H         1 UNK         0.0774 
    107 H107       30.9786   30.9141    2.7305 H         1 UNK         0.0815 
    108 H108       30.2345   32.4665    2.3594 H         1 UNK         0.0815 
    109 H109       30.1005   31.1362    1.2191 H         1 UNK         0.0815 
    110 H110       28.1045   33.1529    4.0382 H         1 UNK         0.2987 
    111 H111       28.1187   32.2294    6.8257 H         1 UNK         0.0949 
    112 H112       27.4101   34.9437    5.5860 H         1 UNK         0.0806 
    113 H113       26.2684   33.6581    5.9816 H         1 UNK         0.0806 
    114 H114       27.1487   34.4769    7.2602 H         1 UNK         0.0806 
    115 H115       30.2102   34.1421    4.7121 H         1 UNK         0.3010 
    116 H116       32.2536   34.4143    6.7801 H         1 UNK         0.0829 
    117 H117       30.8021   36.3767    7.3098 H         1 UNK         0.0813 
    118 H118       32.3337   36.9078    6.6428 H         1 UNK         0.0813 
    119 H119       30.8923   36.9164    5.6340 H         1 UNK         0.0813 
    120 H120       32.4719   32.8246    4.6493 H         1 UNK         0.3038 
    121 H121       34.7370   33.9033    3.2980 H         1 UNK         0.0769 
    122 H122       32.3413   33.0883    1.5375 H         1 UNK         0.0811 
    123 H123       33.9335   33.5539    0.9693 H         1 UNK         0.0811 
    124 H124       32.9032   34.7463    1.7353 H         1 UNK         0.0811 
    125 H125       35.5930   32.0603    1.8062 H         1 UNK         0.3204 
    126 H126       35.6990   29.6052    3.3154 H         1 UNK         0.0748 
    127 H127       37.6641   30.4559    2.0522 H         1 UNK         0.0771 
    128 H128       37.1989   28.8710    1.4580 H         1 UNK         0.0771 
    129 H129       36.7843   30.3059    0.5307 H         1 UNK         0.0771 
    130 H130       34.4146   27.8637    3.1471 H         1 UNK         0.2980 
    131 H131       32.2148   27.8566    1.2427 H         1 UNK         0.0545 
    132 H132       35.2728   26.7413    0.6505 H         1 UNK         0.3459 
    133 H133       34.8521   25.3418   -0.3041 H         1 UNK         0.3459 
    134 H134       31.3055   26.0138    2.6438 H         1 UNK         0.0616 
    135 H135       32.7837   25.9835    3.5804 H         1 UNK         0.0616 
    136 H136       30.7898   27.6670    6.3820 H         1 UNK         0.0634 
    137 H137       32.2062   26.7108    6.0103 H         1 UNK         0.0634 
@<TRIPOS>BOND
     1    1    2 1    
     2    1   72 1    
     3    1   73 1    
     4    1   74 1    
     5    2    3 2    
     6    2    4 am   BACKBONE|DICT|INTERRES
     7    4    5 1    
     8    4   75 1    
     9    5    6 1    
    10    5   35 1    
    11    5   76 1    
    12    6    7 1    
    13    6   77 1    
    14    6   78 1    
    15    7    8 1    
    16    8    9 1    
    17    8   79 1    
    18    8   80 1    
    19    9   10 ar   
    20    9   14 ar   
    21   10   11 ar   
    22   10   81 1    
    23   11   12 ar   
    24   11   71 1    
    25   12   13 ar   
    26   12   82 1    
    27   13   14 ar   
    28   13   15 1    
    29   14   83 1    
    30   15   16 1    
    31   15   84 1    
    32   15   85 1    
    33   16   17 1    
    34   17   18 1    
    35   17   86 1    
    36   17   87 1    
    37   18   19 1    
    38   18   37 1    
    39   18   88 1    
    40   19   20 am   BACKBONE|DICT|INTERRES
    41   19   89 1    
    42   20   21 2    
    43   20   22 1    
    44   22   23 1    
    45   22   24 1    
    46   22   90 1    
    47   23   91 1    
    48   23   92 1    
    49   23   93 1    
    50   24   25 am   BACKBONE|DICT|INTERRES
    51   24   94 1    
    52   25   26 2    
    53   25   27 1    
    54   27   28 1    
    55   27   29 1    
    56   27   95 1    
    57   28   96 1    
    58   28   97 1    
    59   28   98 1    
    60   29   30 am   BACKBONE|DICT|INTERRES
    61   29   99 1    
    62   30   31 2    
    63   30   32 1    
    64   32   33 1    
    65   32   34 1    
    66   32  100 1    
    67   33  101 1    
    68   33  102 1    
    69   33  103 1    
    70   34   35 am   BACKBONE|DICT|INTERRES
    71   34  104 1    
    72   35   36 2    
    73   37   38 2    
    74   37   39 am   BACKBONE|DICT|INTERRES
    75   39   40 1    
    76   39  105 1    
    77   40   41 1    
    78   40   42 1    
    79   40  106 1    
    80   41  107 1    
    81   41  108 1    
    82   41  109 1    
    83   42   43 2    
    84   42   44 am   BACKBONE|DICT|INTERRES
    85   44   45 1    
    86   44  110 1    
    87   45   46 1    
    88   45   47 1    
    89   45  111 1    
    90   46  112 1    
    91   46  113 1    
    92   46  114 1    
    93   47   48 2    
    94   47   49 am   BACKBONE|DICT|INTERRES
    95   49   50 1    
    96   49  115 1    
    97   50   51 1    
    98   50   52 1    
    99   50  116 1    
   100   51  117 1    
   101   51  118 1    
   102   51  119 1    
   103   52   53 2    
   104   52   54 am   BACKBONE|DICT|INTERRES
   105   54   55 1    
   106   54  120 1    
   107   55   56 1    
   108   55   57 1    
   109   55  121 1    
   110   56  122 1    
   111   56  123 1    
   112   56  124 1    
   113   57   58 2    
   114   57   59 am   BACKBONE|DICT|INTERRES
   115   59   60 1    
   116   59  125 1    
   117   60   61 1    
   118   60   62 1    
   119   60  126 1    
   120   61  127 1    
   121   61  128 1    
   122   61  129 1    
   123   62   63 2    
   124   62   64 am   BACKBONE|DICT|INTERRES
   125   64   65 1    
   126   64  130 1    
   127   65   66 1    
   128   65   69 1    
   129   65  131 1    
   130   66   67 am   BACKBONE|DICT|INTERRES
   131   66   68 2    
   132   67  132 1    
   133   67  133 1    
   134   69   70 1    
   135   69  134 1    
   136   69  135 1    
   137   70   71 1    
   138   71  136 1    
   139   71  137 1    
@<TRIPOS>SUBSTRUCTURE
     1 UNK         1 GROUP             0       ****    0 ROOT    
