@<TRIPOS>MOLECULE
3R136
137   139    1
SMALL
USER_CHARGES


@<TRIPOS>ATOM
      1 CA         24.2628   26.2296    2.4647 C.3       0 UNK        -0.1979 
      2 C          25.6381   25.5805    2.4787 C.2       0 UNK         0.4864 
      3 O          26.5355   26.0306    1.7614 O.2       0 UNK        -0.5359 
      4 N          25.8189   24.5483    3.3123 N.am      1 UNK        -0.4318 
      5 CA         27.0596   23.7872    3.4823 C.3       1 UNK         0.0824 
      6 C6         28.2129   24.6523    4.0668 C.3       12 UNK        -0.0944 
      7 S7         29.5086   23.6381    4.8466 S.3       12 UNK        -0.2672 
      8 C8         30.8085   24.8794    5.1169 C.3       12 UNK         0.0333 
      9 C9         31.6198   25.1327    3.8554 C.ar      12 UNK        -0.0807 
     10 C10        32.6155   24.2275    3.4769 C.ar      12 UNK        -0.0894 
     11 C11        33.4075   24.4716    2.3517 C.ar      12 UNK        -0.0804 
     12 C12        33.1983   25.6319    1.6021 C.ar      12 UNK        -0.0824 
     13 C13        32.2085   26.5456    1.9722 C.ar      12 UNK        -0.0762 
     14 C14        31.4113   26.2857    3.0922 C.ar      12 UNK        -0.0782 
     15 C15        32.0430   27.8392    1.1900 C.3       12 UNK         0.0230 
     16 S16        31.1780   27.5993   -0.3914 S.3       12 UNK        -0.2608 
     17 C17        29.4978   27.1595    0.1541 C.3       12 UNK        -0.0989 
     18 CA         28.5313   28.3720    0.1955 C.3       5 UNK         0.0716 
     19 N          27.1763   27.9353   -0.1257 N.am      5 UNK        -0.4135 
     20 C          26.2819   28.5912   -0.8711 C.2       4 UNK         0.5031 
     21 O          26.4333   29.7430   -1.2803 O.2       4 UNK        -0.5229 
     22 CA         25.0631   27.7550   -1.2981 C.3       4 UNK         0.0329 
     23 CB         24.1288   28.4992   -2.2699 C.3       4 UNK        -0.2001 
     24 N          25.5903   26.5529   -1.9459 N.am      4 UNK        -0.4303 
     25 C          25.4409   25.2977   -1.5096 C.2       3 UNK         0.5044 
     26 O          24.6178   24.9543   -0.6628 O.2       3 UNK        -0.5152 
     27 CA         26.4301   24.2575   -2.0521 C.3       3 UNK         0.0319 
     28 CB         27.2264   24.7284   -3.2939 C.3       3 UNK        -0.2001 
     29 N          27.3347   23.9157   -0.9537 N.am      3 UNK        -0.4354 
     30 C          28.1664   22.8667   -0.9183 C.2       2 UNK         0.4964 
     31 O          28.2702   22.0466   -1.8313 O.2       2 UNK        -0.5047 
     32 CA         29.0443   22.6910    0.3377 C.3       2 UNK         0.0288 
     33 CB         30.4717   23.2019    0.0745 C.3       2 UNK        -0.2113 
     34 N          28.5324   23.3392    1.5482 N.am      2 UNK        -0.4145 
     35 C          27.3995   23.0144    2.1873 C.2       1 UNK         0.5006 
     36 O          26.6263   22.1358    1.7996 O.2       1 UNK        -0.5103 
     37 C          28.5729   29.0875    1.5580 C.2       5 UNK         0.5055 
     38 O          29.3588   30.0192    1.7279 O.2       5 UNK        -0.5220 
     39 N          27.7071   28.6716    2.4972 N.am      6 UNK        -0.4450 
     40 CA         27.5952   29.2051    3.8641 C.3       6 UNK         0.0367 
     41 CB         26.5124   28.4242    4.6256 C.3       6 UNK        -0.1929 
     42 C          27.3202   30.7199    3.9653 C.2       6 UNK         0.5070 
     43 O          27.5689   31.3045    5.0193 O.2       6 UNK        -0.5237 
     44 N          26.8322   31.3315    2.8772 N.am      7 UNK        -0.4739 
     45 CA         26.6682   32.7792    2.7257 C.3       7 UNK         0.0276 
     46 CB         25.8253   33.0532    1.4692 C.3       7 UNK        -0.1927 
     47 C          28.0019   33.5529    2.6602 C.2       7 UNK         0.5013 
     48 O          28.0007   34.7548    2.9312 O.2       7 UNK        -0.5193 
     49 N          29.0989   32.8708    2.2985 N.am      8 UNK        -0.4253 
     50 CA         30.4597   33.4036    2.2918 C.3       8 UNK         0.0242 
     51 CB         31.2027   32.8764    1.0455 C.3       8 UNK        -0.2000 
     52 C          31.1382   33.0498    3.6278 C.2       8 UNK         0.4948 
     53 O          30.7807   33.6273    4.6558 O.2       8 UNK        -0.5275 
     54 N          32.0968   32.1187    3.6029 N.am      9 UNK        -0.4246 
     55 CA         32.8140   31.5888    4.7583 C.3       9 UNK         0.0261 
     56 CB         34.0126   32.4935    5.0969 C.3       9 UNK        -0.1959 
     57 C          33.2709   30.1680    4.4123 C.2       9 UNK         0.5033 
     58 O          33.4266   29.8583    3.2282 O.2       9 UNK        -0.5390 
     59 N          33.4711   29.3347    5.4407 N.am      10 UNK        -0.4215 
     60 CA         33.8778   27.9339    5.3041 C.3       10 UNK         0.0240 
     61 CB         33.7124   27.2205    6.6560 C.3       10 UNK        -0.1982 
     62 C          35.3109   27.7700    4.7726 C.2       10 UNK         0.4970 
     63 O          36.1625   28.6257    5.0252 O.2       10 UNK        -0.4916 
     64 N          35.5510   26.6490    4.0815 N.am      11 UNK        -0.4279 
     65 CA         36.8588   26.2640    3.5277 C.3       11 UNK         0.1003 
     66 C          37.9487   25.8849    4.5759 C.2       11 UNK         0.5709 
     67 N          37.6133   25.6762    5.8439 N.am      11 UNK        -0.7358 
     68 O          39.1245   25.7915    4.2308 O.2       11 UNK        -0.4999 
     69 C69        36.7148   25.1861    2.4189 C.3       12 UNK        -0.0954 
     70 S70        35.9686   23.6188    2.9959 S.3       12 UNK        -0.2268 
     71 C71        34.4861   23.4785    1.9481 C.3       12 UNK         0.0203 
     72 H72        23.7407   26.0806    3.4095 H         1 UNK         0.0888 
     73 H73        24.3493   27.3020    2.2939 H         1 UNK         0.0888 
     74 H74        23.6545   25.8064    1.6665 H         1 UNK         0.0888 
     75 H75        25.0328   24.2093    3.8494 H         1 UNK         0.3017 
     76 H76        26.8193   23.0224    4.2229 H         1 UNK         0.0873 
     77 H77        28.6409   25.3263    3.3238 H         1 UNK         0.0745 
     78 H78        27.8180   25.2960    4.8534 H         1 UNK         0.0745 
     79 H79        30.3659   25.8042    5.4908 H         1 UNK         0.0705 
     80 H80        31.4735   24.5233    5.9052 H         1 UNK         0.0705 
     81 H81        32.7802   23.3344    4.0647 H         1 UNK         0.1334 
     82 H82        33.8113   25.8329    0.7340 H         1 UNK         0.1417 
     83 H83        30.6557   26.9999    3.3907 H         1 UNK         0.1562 
     84 H84        33.0284   28.2604    0.9854 H         1 UNK         0.0748 
     85 H85        31.5219   28.5862    1.7876 H         1 UNK         0.0748 
     86 H86        29.5160   26.6135    1.0977 H         1 UNK         0.0940 
     87 H87        29.1464   26.4327   -0.5806 H         1 UNK         0.0940 
     88 H88        28.8423   29.0954   -0.5618 H         1 UNK         0.0703 
     89 H89        26.9035   27.0395    0.2720 H         1 UNK         0.3081 
     90 H90        24.5020   27.5015   -0.3962 H         1 UNK         0.0719 
     91 H91        24.6474   28.7995   -3.1812 H         1 UNK         0.0809 
     92 H92        23.2824   27.8753   -2.5571 H         1 UNK         0.0809 
     93 H93        23.7256   29.4019   -1.8091 H         1 UNK         0.0809 
     94 H94        26.3012   26.7188   -2.6452 H         1 UNK         0.2990 
     95 H95        25.8504   23.3718   -2.3200 H         1 UNK         0.0690 
     96 H96        27.8195   23.9160   -3.7136 H         1 UNK         0.0788 
     97 H97        27.9139   25.5420   -3.0584 H         1 UNK         0.0788 
     98 H98        26.5595   25.0656   -4.0887 H         1 UNK         0.0788 
     99 H99        27.2490   24.4883   -0.1234 H         1 UNK         0.2993 
    100 H100       29.0978   21.6189    0.5389 H         1 UNK         0.0949 
    101 H101       31.1316   22.9868    0.9155 H         1 UNK         0.0767 
    102 H102       30.9043   22.7220   -0.8045 H         1 UNK         0.0767 
    103 H103       30.4932   24.2784   -0.0987 H         1 UNK         0.0767 
    104 H104       29.1203   24.0481    1.9612 H         1 UNK         0.3013 
    105 H105       27.1260   27.8702    2.2756 H         1 UNK         0.3121 
    106 H106       28.5539   29.0267    4.3555 H         1 UNK         0.0774 
    107 H107       25.5310   28.5447    4.1663 H         1 UNK         0.0815 
    108 H108       26.4321   28.7718    5.6567 H         1 UNK         0.0815 
    109 H109       26.7403   27.3609    4.6664 H         1 UNK         0.0815 
    110 H110       26.6547   30.7674    2.0591 H         1 UNK         0.2987 
    111 H111       26.1217   33.1503    3.5956 H         1 UNK         0.0949 
    112 H112       26.3130   32.6815    0.5668 H         1 UNK         0.0806 
    113 H113       24.8437   32.5840    1.5386 H         1 UNK         0.0806 
    114 H114       25.6616   34.1234    1.3342 H         1 UNK         0.0806 
    115 H115       29.0177   31.8719    2.1245 H         1 UNK         0.3010 
    116 H116       30.4359   34.4933    2.2245 H         1 UNK         0.0829 
    117 H117       30.7148   33.2158    0.1316 H         1 UNK         0.0813 
    118 H118       32.2291   33.2446    1.0133 H         1 UNK         0.0813 
    119 H119       31.2368   31.7868    1.0095 H         1 UNK         0.0813 
    120 H120       32.3081   31.6347    2.7379 H         1 UNK         0.3038 
    121 H121       32.1351   31.5379    5.6125 H         1 UNK         0.0769 
    122 H122       34.7088   32.5661    4.2603 H         1 UNK         0.0811 
    123 H123       34.5684   32.1060    5.9516 H         1 UNK         0.0811 
    124 H124       33.6892   33.5028    5.3519 H         1 UNK         0.0811 
    125 H125       33.3661   29.6855    6.3816 H         1 UNK         0.3204 
    126 H126       33.2028   27.4712    4.5882 H         1 UNK         0.0748 
    127 H127       34.3634   27.6475    7.4202 H         1 UNK         0.0771 
    128 H128       32.6848   27.2837    7.0147 H         1 UNK         0.0771 
    129 H129       33.9564   26.1604    6.5729 H         1 UNK         0.0771 
    130 H130       34.8029   25.9878    3.9267 H         1 UNK         0.2980 
    131 H131       37.2499   27.1559    3.0344 H         1 UNK         0.0545 
    132 H132       38.3300   25.4371    6.5107 H         1 UNK         0.3459 
    133 H133       36.6530   25.7465    6.1364 H         1 UNK         0.3459 
    134 H134       36.1225   25.5898    1.5975 H         1 UNK         0.0616 
    135 H135       37.6881   24.9565    1.9816 H         1 UNK         0.0616 
    136 H136       34.7646   23.6072    0.9010 H         1 UNK         0.0634 
    137 H137       34.0912   22.4652    2.0346 H         1 UNK         0.0634 
@<TRIPOS>BOND
     1    1    2 1    
     2    1   72 1    
     3    1   73 1    
     4    1   74 1    
     5    2    3 2    
     6    2    4 am   BACKBONE|DICT|INTERRES
     7    4    5 1    
     8    4   75 1    
     9    5    6 1    
    10    5   35 1    
    11    5   76 1    
    12    6    7 1    
    13    6   77 1    
    14    6   78 1    
    15    7    8 1    
    16    8    9 1    
    17    8   79 1    
    18    8   80 1    
    19    9   10 ar   
    20    9   14 ar   
    21   10   11 ar   
    22   10   81 1    
    23   11   12 ar   
    24   11   71 1    
    25   12   13 ar   
    26   12   82 1    
    27   13   14 ar   
    28   13   15 1    
    29   14   83 1    
    30   15   16 1    
    31   15   84 1    
    32   15   85 1    
    33   16   17 1    
    34   17   18 1    
    35   17   86 1    
    36   17   87 1    
    37   18   19 1    
    38   18   37 1    
    39   18   88 1    
    40   19   20 am   BACKBONE|DICT|INTERRES
    41   19   89 1    
    42   20   21 2    
    43   20   22 1    
    44   22   23 1    
    45   22   24 1    
    46   22   90 1    
    47   23   91 1    
    48   23   92 1    
    49   23   93 1    
    50   24   25 am   BACKBONE|DICT|INTERRES
    51   24   94 1    
    52   25   26 2    
    53   25   27 1    
    54   27   28 1    
    55   27   29 1    
    56   27   95 1    
    57   28   96 1    
    58   28   97 1    
    59   28   98 1    
    60   29   30 am   BACKBONE|DICT|INTERRES
    61   29   99 1    
    62   30   31 2    
    63   30   32 1    
    64   32   33 1    
    65   32   34 1    
    66   32  100 1    
    67   33  101 1    
    68   33  102 1    
    69   33  103 1    
    70   34   35 am   BACKBONE|DICT|INTERRES
    71   34  104 1    
    72   35   36 2    
    73   37   38 2    
    74   37   39 am   BACKBONE|DICT|INTERRES
    75   39   40 1    
    76   39  105 1    
    77   40   41 1    
    78   40   42 1    
    79   40  106 1    
    80   41  107 1    
    81   41  108 1    
    82   41  109 1    
    83   42   43 2    
    84   42   44 am   BACKBONE|DICT|INTERRES
    85   44   45 1    
    86   44  110 1    
    87   45   46 1    
    88   45   47 1    
    89   45  111 1    
    90   46  112 1    
    91   46  113 1    
    92   46  114 1    
    93   47   48 2    
    94   47   49 am   BACKBONE|DICT|INTERRES
    95   49   50 1    
    96   49  115 1    
    97   50   51 1    
    98   50   52 1    
    99   50  116 1    
   100   51  117 1    
   101   51  118 1    
   102   51  119 1    
   103   52   53 2    
   104   52   54 am   BACKBONE|DICT|INTERRES
   105   54   55 1    
   106   54  120 1    
   107   55   56 1    
   108   55   57 1    
   109   55  121 1    
   110   56  122 1    
   111   56  123 1    
   112   56  124 1    
   113   57   58 2    
   114   57   59 am   BACKBONE|DICT|INTERRES
   115   59   60 1    
   116   59  125 1    
   117   60   61 1    
   118   60   62 1    
   119   60  126 1    
   120   61  127 1    
   121   61  128 1    
   122   61  129 1    
   123   62   63 2    
   124   62   64 am   BACKBONE|DICT|INTERRES
   125   64   65 1    
   126   64  130 1    
   127   65   66 1    
   128   65   69 1    
   129   65  131 1    
   130   66   67 am   BACKBONE|DICT|INTERRES
   131   66   68 2    
   132   67  132 1    
   133   67  133 1    
   134   69   70 1    
   135   69  134 1    
   136   69  135 1    
   137   70   71 1    
   138   71  136 1    
   139   71  137 1    
@<TRIPOS>SUBSTRUCTURE
     1 UNK         1 GROUP             0       ****    0 ROOT    
