@<TRIPOS>MOLECULE
3R136
137   139    1
SMALL
USER_CHARGES


@<TRIPOS>ATOM
      1 CA         25.9314   22.2315    1.6131 C.3       0 UNK        -0.1979 
      2 C          26.6367   21.8022    0.3359 C.2       0 UNK         0.4864 
      3 O          26.1458   20.9151   -0.3634 O.2       0 UNK        -0.5359 
      4 N          27.7859   22.4181    0.0293 N.am      1 UNK        -0.4318 
      5 CA         28.5846   22.1466   -1.1716 C.3       1 UNK         0.0824 
      6 C6         30.0535   22.6065   -1.0018 C.3       12 UNK        -0.0944 
      7 S7         30.2497   24.3729   -0.5643 S.3       12 UNK        -0.2672 
      8 C8         31.8767   24.3417    0.2550 C.3       12 UNK         0.0333 
      9 C9         31.7720   24.4723    1.7696 C.ar      12 UNK        -0.0807 
     10 C10        32.4238   25.5246    2.4204 C.ar      12 UNK        -0.0894 
     11 C11        32.3736   25.6452    3.8119 C.ar      12 UNK        -0.0804 
     12 C12        31.6480   24.7113    4.5539 C.ar      12 UNK        -0.0824 
     13 C13        30.9618   23.6738    3.9160 C.ar      12 UNK        -0.0762 
     14 C14        31.0453   23.5450    2.5258 C.ar      12 UNK        -0.0782 
     15 C15        30.1012   22.7185    4.7315 C.3       12 UNK         0.0230 
     16 S16        28.3275   23.1399    4.6294 S.3       12 UNK        -0.2608 
     17 C17        28.3061   24.8844    5.1785 C.3       12 UNK        -0.0989 
     18 CA         28.2113   25.8498    3.9632 C.3       5 UNK         0.0716 
     19 N          26.9433   25.7315    3.2294 N.am      5 UNK        -0.4135 
     20 C          25.7127   26.0315    3.6662 C.2       4 UNK         0.5031 
     21 O          25.4725   26.4651    4.7940 O.2       4 UNK        -0.5229 
     22 CA         24.5688   25.8565    2.6434 C.3       4 UNK         0.0329 
     23 CB         23.1956   26.2513    3.2188 C.3       4 UNK        -0.2001 
     24 N          24.7945   26.6073    1.4011 N.am      4 UNK        -0.4303 
     25 C          25.6707   26.2822    0.4427 C.2       3 UNK         0.5044 
     26 O          26.4317   25.3100    0.5134 O.2       3 UNK        -0.5152 
     27 CA         25.7571   27.2266   -0.7676 C.3       3 UNK         0.0319 
     28 CB         26.6429   28.4395   -0.4371 C.3       3 UNK        -0.2001 
     29 N          26.3460   26.5028   -1.8912 N.am      3 UNK        -0.4354 
     30 C          25.6763   25.6281   -2.6536 C.2       2 UNK         0.4964 
     31 O          24.4491   25.5549   -2.7191 O.2       2 UNK        -0.5047 
     32 CA         26.5427   24.5880   -3.3625 C.3       2 UNK         0.0288 
     33 CB         27.5134   25.2340   -4.3733 C.3       2 UNK        -0.2113 
     34 N          27.2548   23.8591   -2.3149 N.am      2 UNK        -0.4145 
     35 C          27.9495   22.7252   -2.4547 C.2       1 UNK         0.5006 
     36 O          28.0955   22.1340   -3.5263 O.2       1 UNK        -0.5103 
     37 C          28.5882   27.3151    4.2927 C.2       5 UNK         0.5055 
     38 O          29.4097   27.5594    5.1773 O.2       5 UNK        -0.5220 
     39 N          28.0126   28.2640    3.5401 N.am      6 UNK        -0.4450 
     40 CA         28.2830   29.7010    3.6187 C.3       6 UNK         0.0367 
     41 CB         26.9548   30.4611    3.4641 C.3       6 UNK        -0.1929 
     42 C          29.2999   30.1669    2.5599 C.2       6 UNK         0.5070 
     43 O          29.6271   31.3546    2.5294 O.2       6 UNK        -0.5237 
     44 N          29.7838   29.2476    1.7113 N.am      7 UNK        -0.4739 
     45 CA         30.7547   29.5041    0.6438 C.3       7 UNK         0.0276 
     46 CB         30.9994   28.2028   -0.1359 C.3       7 UNK        -0.1927 
     47 C          32.0806   30.0777    1.1748 C.2       7 UNK         0.5013 
     48 O          32.5206   29.6937    2.2611 O.2       7 UNK        -0.5193 
     49 N          32.6740   31.0006    0.4031 N.am      8 UNK        -0.4253 
     50 CA         33.8880   31.7646    0.7274 C.3       8 UNK         0.0242 
     51 CB         35.1284   30.8446    0.7139 C.3       8 UNK        -0.2000 
     52 C          33.7533   32.5743    2.0348 C.2       8 UNK         0.4948 
     53 O          34.6902   32.6074    2.8340 O.2       8 UNK        -0.5275 
     54 N          32.5715   33.1817    2.2369 N.am      9 UNK        -0.4246 
     55 CA         32.1425   33.9086    3.4411 C.3       9 UNK         0.0261 
     56 CB         32.9382   35.2219    3.6026 C.3       9 UNK        -0.1959 
     57 C          32.1835   33.0165    4.6984 C.2       9 UNK         0.5033 
     58 O          32.7350   33.4167    5.7254 O.2       9 UNK        -0.5390 
     59 N          31.6159   31.8089    4.5633 N.am      10 UNK        -0.4215 
     60 CA         31.6440   30.6918    5.5133 C.3       10 UNK         0.0240 
     61 CB         30.8031   31.0137    6.7668 C.3       10 UNK        -0.1982 
     62 C          33.0818   30.2414    5.8364 C.2       10 UNK         0.4970 
     63 O          33.4373   30.1129    7.0097 O.2       10 UNK        -0.4916 
     64 N          33.8712   30.0067    4.7779 N.am      11 UNK        -0.4279 
     65 CA         35.2797   29.5825    4.8211 C.3       11 UNK         0.1003 
     66 C          36.1973   30.6081    5.5511 C.2       11 UNK         0.5709 
     67 N          36.1309   31.8811    5.1846 N.am      11 UNK        -0.7358 
     68 O          36.9752   30.2637    6.4389 O.2       11 UNK        -0.4999 
     69 C69        35.4422   28.1180    5.3253 C.3       12 UNK        -0.0954 
     70 S70        34.8418   26.8830    4.1254 S.3       12 UNK        -0.2268 
     71 C71        33.0642   26.8052    4.5136 C.3       12 UNK         0.0203 
     72 H72        25.8206   21.3819    2.2862 H         1 UNK         0.0888 
     73 H73        26.4835   23.0087    2.1396 H         1 UNK         0.0888 
     74 H74        24.9394   22.6155    1.3786 H         1 UNK         0.0888 
     75 H75        28.1275   23.1648    0.6183 H         1 UNK         0.3017 
     76 H76        28.6060   21.0629   -1.3088 H         1 UNK         0.0873 
     77 H77        30.6258   22.4087   -1.9105 H         1 UNK         0.0745 
     78 H78        30.5210   21.9975   -0.2271 H         1 UNK         0.0745 
     79 H79        32.4727   25.1571   -0.1575 H         1 UNK         0.0705 
     80 H80        32.4150   23.4260    0.0074 H         1 UNK         0.0705 
     81 H81        32.9850   26.2516    1.8490 H         1 UNK         0.1334 
     82 H82        31.5895   24.8122    5.6290 H         1 UNK         0.1417 
     83 H83        30.5230   22.7370    2.0333 H         1 UNK         0.1562 
     84 H84        30.4097   22.7198    5.7782 H         1 UNK         0.0748 
     85 H85        30.2448   21.6982    4.3730 H         1 UNK         0.0748 
     86 H86        29.1942   25.0756    5.7808 H         1 UNK         0.0940 
     87 H87        27.4636   25.0305    5.8556 H         1 UNK         0.0940 
     88 H88        28.9761   25.5469    3.2472 H         1 UNK         0.0703 
     89 H89        27.0141   25.4145    2.2649 H         1 UNK         0.3081 
     90 H90        24.5253   24.7940    2.3983 H         1 UNK         0.0719 
     91 H91        23.1583   27.3079    3.4875 H         1 UNK         0.0809 
     92 H92        22.3948   26.0572    2.5050 H         1 UNK         0.0809 
     93 H93        22.9684   25.6778    4.1186 H         1 UNK         0.0809 
     94 H94        24.2324   27.4376    1.2767 H         1 UNK         0.2990 
     95 H95        24.7549   27.5697   -1.0338 H         1 UNK         0.0690 
     96 H96        26.7547   29.0943   -1.3016 H         1 UNK         0.0788 
     97 H97        27.6407   28.1387   -0.1161 H         1 UNK         0.0788 
     98 H98        26.2071   29.0381    0.3631 H         1 UNK         0.0788 
     99 H99        27.3547   26.4605   -1.9041 H         1 UNK         0.2993 
    100 H100       25.8837   23.8944   -3.8892 H         1 UNK         0.0949 
    101 H101       28.0396   24.4782   -4.9563 H         1 UNK         0.0767 
    102 H102       26.9753   25.8661   -5.0810 H         1 UNK         0.0767 
    103 H103       28.2648   25.8538   -3.8829 H         1 UNK         0.0767 
    104 H104       27.1501   24.2344   -1.3781 H         1 UNK         0.3013 
    105 H105       27.3383   27.9719    2.8492 H         1 UNK         0.3121 
    106 H106       28.6984   29.9455    4.5980 H         1 UNK         0.0774 
    107 H107       27.1040   31.5358    3.5786 H         1 UNK         0.0815 
    108 H108       26.5041   30.2987    2.4848 H         1 UNK         0.0815 
    109 H109       26.2329   30.1549    4.2215 H         1 UNK         0.0815 
    110 H110       29.5095   28.2874    1.8464 H         1 UNK         0.2987 
    111 H111       30.3066   30.2356   -0.0321 H         1 UNK         0.0949 
    112 H112       31.7266   28.3520   -0.9351 H         1 UNK         0.0806 
    113 H113       31.3845   27.4162    0.5114 H         1 UNK         0.0806 
    114 H114       30.0843   27.8341   -0.5991 H         1 UNK         0.0806 
    115 H115       32.2338   31.2418   -0.4746 H         1 UNK         0.3010 
    116 H116       34.0162   32.5000   -0.0684 H         1 UNK         0.0829 
    117 H117       35.2279   30.3294   -0.2413 H         1 UNK         0.0813 
    118 H118       36.0440   31.4167    0.8686 H         1 UNK         0.0813 
    119 H119       35.0815   30.0878    1.4967 H         1 UNK         0.0813 
    120 H120       31.8609   33.0659    1.5274 H         1 UNK         0.3038 
    121 H121       31.0950   34.1731    3.2878 H         1 UNK         0.0769 
    122 H122       32.5503   35.8124    4.4334 H         1 UNK         0.0811 
    123 H123       32.8711   35.8395    2.7072 H         1 UNK         0.0811 
    124 H124       33.9937   35.0351    3.8034 H         1 UNK         0.0811 
    125 H125       31.1534   31.6124    3.6789 H         1 UNK         0.3204 
    126 H126       31.1731   29.8465    5.0097 H         1 UNK         0.0748 
    127 H127       30.7268   30.1412    7.4169 H         1 UNK         0.0771 
    128 H128       31.2421   31.8209    7.3541 H         1 UNK         0.0771 
    129 H129       29.7882   31.3072    6.4993 H         1 UNK         0.0771 
    130 H130       33.4706   30.0961    3.8472 H         1 UNK         0.2980 
    131 H131       35.6273   29.6022    3.7882 H         1 UNK         0.0545 
    132 H132       36.7121   32.5616    5.6457 H         1 UNK         0.3459 
    133 H133       35.5241   32.1660    4.4174 H         1 UNK         0.3459 
    134 H134       36.4965   27.8869    5.4856 H         1 UNK         0.0616 
    135 H135       34.9554   27.9699    6.2901 H         1 UNK         0.0616 
    136 H136       32.5780   27.7267    4.1957 H         1 UNK         0.0634 
    137 H137       32.9354   26.7379    5.5949 H         1 UNK         0.0634 
@<TRIPOS>BOND
     1    1    2 1    
     2    1   72 1    
     3    1   73 1    
     4    1   74 1    
     5    2    3 2    
     6    2    4 am   BACKBONE|DICT|INTERRES
     7    4    5 1    
     8    4   75 1    
     9    5    6 1    
    10    5   35 1    
    11    5   76 1    
    12    6    7 1    
    13    6   77 1    
    14    6   78 1    
    15    7    8 1    
    16    8    9 1    
    17    8   79 1    
    18    8   80 1    
    19    9   10 ar   
    20    9   14 ar   
    21   10   11 ar   
    22   10   81 1    
    23   11   12 ar   
    24   11   71 1    
    25   12   13 ar   
    26   12   82 1    
    27   13   14 ar   
    28   13   15 1    
    29   14   83 1    
    30   15   16 1    
    31   15   84 1    
    32   15   85 1    
    33   16   17 1    
    34   17   18 1    
    35   17   86 1    
    36   17   87 1    
    37   18   19 1    
    38   18   37 1    
    39   18   88 1    
    40   19   20 am   BACKBONE|DICT|INTERRES
    41   19   89 1    
    42   20   21 2    
    43   20   22 1    
    44   22   23 1    
    45   22   24 1    
    46   22   90 1    
    47   23   91 1    
    48   23   92 1    
    49   23   93 1    
    50   24   25 am   BACKBONE|DICT|INTERRES
    51   24   94 1    
    52   25   26 2    
    53   25   27 1    
    54   27   28 1    
    55   27   29 1    
    56   27   95 1    
    57   28   96 1    
    58   28   97 1    
    59   28   98 1    
    60   29   30 am   BACKBONE|DICT|INTERRES
    61   29   99 1    
    62   30   31 2    
    63   30   32 1    
    64   32   33 1    
    65   32   34 1    
    66   32  100 1    
    67   33  101 1    
    68   33  102 1    
    69   33  103 1    
    70   34   35 am   BACKBONE|DICT|INTERRES
    71   34  104 1    
    72   35   36 2    
    73   37   38 2    
    74   37   39 am   BACKBONE|DICT|INTERRES
    75   39   40 1    
    76   39  105 1    
    77   40   41 1    
    78   40   42 1    
    79   40  106 1    
    80   41  107 1    
    81   41  108 1    
    82   41  109 1    
    83   42   43 2    
    84   42   44 am   BACKBONE|DICT|INTERRES
    85   44   45 1    
    86   44  110 1    
    87   45   46 1    
    88   45   47 1    
    89   45  111 1    
    90   46  112 1    
    91   46  113 1    
    92   46  114 1    
    93   47   48 2    
    94   47   49 am   BACKBONE|DICT|INTERRES
    95   49   50 1    
    96   49  115 1    
    97   50   51 1    
    98   50   52 1    
    99   50  116 1    
   100   51  117 1    
   101   51  118 1    
   102   51  119 1    
   103   52   53 2    
   104   52   54 am   BACKBONE|DICT|INTERRES
   105   54   55 1    
   106   54  120 1    
   107   55   56 1    
   108   55   57 1    
   109   55  121 1    
   110   56  122 1    
   111   56  123 1    
   112   56  124 1    
   113   57   58 2    
   114   57   59 am   BACKBONE|DICT|INTERRES
   115   59   60 1    
   116   59  125 1    
   117   60   61 1    
   118   60   62 1    
   119   60  126 1    
   120   61  127 1    
   121   61  128 1    
   122   61  129 1    
   123   62   63 2    
   124   62   64 am   BACKBONE|DICT|INTERRES
   125   64   65 1    
   126   64  130 1    
   127   65   66 1    
   128   65   69 1    
   129   65  131 1    
   130   66   67 am   BACKBONE|DICT|INTERRES
   131   66   68 2    
   132   67  132 1    
   133   67  133 1    
   134   69   70 1    
   135   69  134 1    
   136   69  135 1    
   137   70   71 1    
   138   71  136 1    
   139   71  137 1    
@<TRIPOS>SUBSTRUCTURE
     1 UNK         1 GROUP             0       ****    0 ROOT    
