@<TRIPOS>MOLECULE
3R136
137   139    1
SMALL
USER_CHARGES


@<TRIPOS>ATOM
      1 CA         26.4509   18.5620    1.7802 C.3       0 UNK        -0.1979 
      2 C          27.5250   18.7611    0.7211 C.2       0 UNK         0.4864 
      3 O          27.5655   18.0147   -0.2578 O.2       0 UNK        -0.5359 
      4 N          28.3942   19.7634    0.9089 N.am      1 UNK        -0.4318 
      5 CA         29.4852   20.1129   -0.0105 C.3       1 UNK         0.0824 
      6 C6         30.5821   20.9562    0.6913 C.3       12 UNK        -0.0944 
      7 S7         29.9998   22.5444    1.3921 S.3       12 UNK        -0.2672 
      8 C8         29.9937   22.1609    3.1694 C.3       12 UNK         0.0333 
      9 C9         29.7471   23.3978    4.0211 C.ar      12 UNK        -0.0807 
     10 C10        30.7812   23.9302    4.7964 C.ar      12 UNK        -0.0894 
     11 C11        30.5475   25.0155    5.6455 C.ar      12 UNK        -0.0804 
     12 C12        29.2685   25.5778    5.7077 C.ar      12 UNK        -0.0824 
     13 C13        28.2291   25.0674    4.9226 C.ar      12 UNK        -0.0762 
     14 C14        28.4754   23.9776    4.0803 C.ar      12 UNK        -0.0782 
     15 C15        26.8264   25.6535    5.0209 C.3       12 UNK         0.0230 
     16 S16        26.4865   26.8685    3.7066 S.3       12 UNK        -0.2608 
     17 C17        27.4366   28.3234    4.2682 C.3       12 UNK        -0.0989 
     18 CA         28.7378   28.5269    3.4462 C.3       5 UNK         0.0716 
     19 N          28.4294   28.7094    2.0224 N.am      5 UNK        -0.4135 
     20 C          29.2837   28.5972    0.9985 C.2       4 UNK         0.5031 
     21 O          30.4980   28.4279    1.1149 O.2       4 UNK        -0.5229 
     22 CA         28.6619   28.6556   -0.4097 C.3       4 UNK         0.0329 
     23 CB         28.9949   29.9699   -1.1333 C.3       4 UNK        -0.2001 
     24 N          29.1250   27.5349   -1.2276 N.am      4 UNK        -0.4303 
     25 C          28.7977   26.2562   -1.0109 C.2       3 UNK         0.5044 
     26 O          27.9721   25.8915   -0.1691 O.2       3 UNK        -0.5152 
     27 CA         29.5427   25.2201   -1.8662 C.3       3 UNK         0.0319 
     28 CB         30.9827   25.0361   -1.3560 C.3       3 UNK        -0.2001 
     29 N          28.8543   23.9332   -1.8044 N.am      3 UNK        -0.4354 
     30 C          27.9012   23.5258   -2.6527 C.2       2 UNK         0.4964 
     31 O          27.5734   24.1586   -3.6582 O.2       2 UNK        -0.5047 
     32 CA         27.1630   22.2117   -2.3144 C.3       2 UNK         0.0288 
     33 CB         26.8705   21.3594   -3.5685 C.3       2 UNK        -0.2113 
     34 N          27.8066   21.4097   -1.2628 N.am      2 UNK        -0.4145 
     35 C          28.9987   20.7910   -1.3104 C.2       1 UNK         0.5006 
     36 O          29.7232   20.7634   -2.3065 O.2       1 UNK        -0.5103 
     37 C          29.6173   29.6558    4.0340 C.2       5 UNK         0.5055 
     38 O          30.0240   30.5751    3.3185 O.2       5 UNK        -0.5220 
     39 N          29.9037   29.5584    5.3419 N.am      6 UNK        -0.4450 
     40 CA         30.7885   30.4301    6.1248 C.3       6 UNK         0.0367 
     41 CB         30.6930   30.0591    7.6154 C.3       6 UNK        -0.1929 
     42 C          30.5406   31.9337    5.9326 C.2       6 UNK         0.5070 
     43 O          31.4577   32.6597    5.5501 O.2       6 UNK        -0.5237 
     44 N          29.2929   32.3606    6.1596 N.am      7 UNK        -0.4739 
     45 CA         28.8648   33.7561    6.0286 C.3       7 UNK         0.0276 
     46 CB         27.5141   33.9307    6.7424 C.3       7 UNK        -0.1927 
     47 C          28.7691   34.2447    4.5716 C.2       7 UNK         0.5013 
     48 O          28.7482   35.4563    4.3506 O.2       7 UNK        -0.5193 
     49 N          28.6873   33.3106    3.6151 N.am      8 UNK        -0.4253 
     50 CA         28.5484   33.5980    2.1909 C.3       8 UNK         0.0242 
     51 CB         27.6757   32.5185    1.5311 C.3       8 UNK        -0.2000 
     52 C          29.9117   33.7199    1.4960 C.2       8 UNK         0.4948 
     53 O          30.1244   34.7005    0.7811 O.2       8 UNK        -0.5275 
     54 N          30.8028   32.7366    1.6957 N.am      9 UNK        -0.4246 
     55 CA         32.0891   32.6580    0.9930 C.3       9 UNK         0.0261 
     56 CB         31.8812   32.0774   -0.4206 C.3       9 UNK        -0.1959 
     57 C          33.1722   31.8826    1.7631 C.2       9 UNK         0.5033 
     58 O          34.1011   31.3834    1.1260 O.2       9 UNK        -0.5390 
     59 N          33.0700   31.8013    3.0990 N.am      10 UNK        -0.4215 
     60 CA         34.0284   31.1344    3.9955 C.3       10 UNK         0.0240 
     61 CB         35.3979   31.8507    3.9790 C.3       10 UNK        -0.1982 
     62 C          34.1403   29.6082    3.7777 C.2       10 UNK         0.4970 
     63 O          35.2245   29.0510    3.9603 O.2       10 UNK        -0.4916 
     64 N          33.0133   28.9662    3.4354 N.am      11 UNK        -0.4279 
     65 CA         32.8483   27.5144    3.2215 C.3       11 UNK         0.1003 
     66 C          33.4977   26.9915    1.9062 C.2       11 UNK         0.5709 
     67 N          33.2393   25.7400    1.5462 N.am      11 UNK        -0.7358 
     68 O          34.2264   27.6880    1.2026 O.2       11 UNK        -0.4999 
     69 C69        33.2478   26.6506    4.4561 C.3       12 UNK        -0.0954 
     70 S70        32.3408   27.1232    5.9656 S.3       12 UNK        -0.2268 
     71 C71        31.6617   25.5381    6.5417 C.3       12 UNK         0.0203 
     72 H72        26.5338   19.2888    2.5882 H         1 UNK         0.0888 
     73 H73        25.4615   18.6618    1.3346 H         1 UNK         0.0888 
     74 H74        26.5311   17.5649    2.2123 H         1 UNK         0.0888 
     75 H75        28.3148   20.3442    1.7307 H         1 UNK         0.3017 
     76 H76        29.9551   19.1771   -0.3222 H         1 UNK         0.0873 
     77 H77        31.0436   20.3601    1.4798 H         1 UNK         0.0745 
     78 H78        31.3930   21.1753   -0.0065 H         1 UNK         0.0745 
     79 H79        30.9463   21.7025    3.4400 H         1 UNK         0.0705 
     80 H80        29.2248   21.4170    3.3807 H         1 UNK         0.0705 
     81 H81        31.7634   23.4785    4.7633 H         1 UNK         0.1334 
     82 H82        29.0810   26.4000    6.3836 H         1 UNK         0.1417 
     83 H83        27.6723   23.5686    3.4820 H         1 UNK         0.1562 
     84 H84        26.6643   26.1093    5.9988 H         1 UNK         0.0748 
     85 H85        26.0935   24.8488    4.9442 H         1 UNK         0.0748 
     86 H86        27.6375   28.2083    5.3336 H         1 UNK         0.0940 
     87 H87        26.7938   29.2020    4.1840 H         1 UNK         0.0940 
     88 H88        29.3315   27.6137    3.5251 H         1 UNK         0.0703 
     89 H89        27.4507   28.8347    1.8122 H         1 UNK         0.3081 
     90 H90        27.5758   28.5864   -0.3156 H         1 UNK         0.0719 
     91 H91        30.0216   29.9781   -1.4965 H         1 UNK         0.0809 
     92 H92        28.3428   30.1184   -1.9941 H         1 UNK         0.0809 
     93 H93        28.8717   30.8330   -0.4808 H         1 UNK         0.0809 
     94 H94        29.8378   27.7427   -1.9113 H         1 UNK         0.2990 
     95 H95        29.5783   25.5733   -2.8991 H         1 UNK         0.0690 
     96 H96        31.5052   24.2565   -1.9109 H         1 UNK         0.0788 
     97 H97        31.0056   24.7685   -0.2993 H         1 UNK         0.0788 
     98 H98        31.5602   25.9548   -1.4660 H         1 UNK         0.0788 
     99 H99        29.0157   23.3889   -0.9689 H         1 UNK         0.2993 
    100 H100       26.2010   22.5199   -1.9018 H         1 UNK         0.0949 
    101 H101       27.7842   21.0846   -4.0960 H         1 UNK         0.0767 
    102 H102       26.3424   20.4415   -3.3100 H         1 UNK         0.0767 
    103 H103       26.2424   21.9044   -4.2744 H         1 UNK         0.0767 
    104 H104       27.3084   21.3714   -0.3846 H         1 UNK         0.3013 
    105 H105       29.5416   28.7623    5.8438 H         1 UNK         0.3121 
    106 H106       31.8056   30.2177    5.7997 H         1 UNK         0.0774 
    107 H107       31.3486   30.6907    8.2168 H         1 UNK         0.0815 
    108 H108       29.6809   30.1793    8.0033 H         1 UNK         0.0815 
    109 H109       30.9955   29.0279    7.7940 H         1 UNK         0.0815 
    110 H110       28.5963   31.6919    6.4555 H         1 UNK         0.2987 
    111 H111       29.6012   34.3879    6.5310 H         1 UNK         0.0949 
    112 H112       27.1784   34.9678    6.6953 H         1 UNK         0.0806 
    113 H113       26.7350   33.3160    6.2897 H         1 UNK         0.0806 
    114 H114       27.5842   33.6640    7.7971 H         1 UNK         0.0806 
    115 H115       28.7901   32.3399    3.8783 H         1 UNK         0.3010 
    116 H116       28.0306   34.5519    2.0656 H         1 UNK         0.0829 
    117 H117       26.6736   32.5065    1.9600 H         1 UNK         0.0813 
    118 H118       27.5663   32.7050    0.4620 H         1 UNK         0.0813 
    119 H119       28.1003   31.5234    1.6531 H         1 UNK         0.0813 
    120 H120       30.5457   31.9411    2.2813 H         1 UNK         0.3038 
    121 H121       32.4834   33.6708    0.8869 H         1 UNK         0.0769 
    122 H122       32.7821   32.1866   -1.0256 H         1 UNK         0.0811 
    123 H123       31.0733   32.5745   -0.9572 H         1 UNK         0.0811 
    124 H124       31.6556   31.0129   -0.3679 H         1 UNK         0.0811 
    125 H125       32.2905   32.2545    3.5638 H         1 UNK         0.3204 
    126 H126       33.6375   31.2590    5.0040 H         1 UNK         0.0748 
    127 H127       36.0500   31.4651    4.7636 H         1 UNK         0.0771 
    128 H128       35.9186   31.7138    3.0309 H         1 UNK         0.0771 
    129 H129       35.2874   32.9214    4.1507 H         1 UNK         0.0771 
    130 H130       32.1931   29.5217    3.2354 H         1 UNK         0.2980 
    131 H131       31.7770   27.3780    3.0807 H         1 UNK         0.0545 
    132 H132       33.6525   25.3841    0.6994 H         1 UNK         0.3459 
    133 H133       32.6282   25.1542    2.0918 H         1 UNK         0.3459 
    134 H134       33.0642   25.5947    4.2583 H         1 UNK         0.0616 
    135 H135       34.3163   26.7261    4.6593 H         1 UNK         0.0616 
    136 H136       32.4706   24.8104    6.6251 H         1 UNK         0.0634 
    137 H137       31.2731   25.6745    7.5519 H         1 UNK         0.0634 
@<TRIPOS>BOND
     1    1    2 1    
     2    1   72 1    
     3    1   73 1    
     4    1   74 1    
     5    2    3 2    
     6    2    4 am   BACKBONE|DICT|INTERRES
     7    4    5 1    
     8    4   75 1    
     9    5    6 1    
    10    5   35 1    
    11    5   76 1    
    12    6    7 1    
    13    6   77 1    
    14    6   78 1    
    15    7    8 1    
    16    8    9 1    
    17    8   79 1    
    18    8   80 1    
    19    9   10 ar   
    20    9   14 ar   
    21   10   11 ar   
    22   10   81 1    
    23   11   12 ar   
    24   11   71 1    
    25   12   13 ar   
    26   12   82 1    
    27   13   14 ar   
    28   13   15 1    
    29   14   83 1    
    30   15   16 1    
    31   15   84 1    
    32   15   85 1    
    33   16   17 1    
    34   17   18 1    
    35   17   86 1    
    36   17   87 1    
    37   18   19 1    
    38   18   37 1    
    39   18   88 1    
    40   19   20 am   BACKBONE|DICT|INTERRES
    41   19   89 1    
    42   20   21 2    
    43   20   22 1    
    44   22   23 1    
    45   22   24 1    
    46   22   90 1    
    47   23   91 1    
    48   23   92 1    
    49   23   93 1    
    50   24   25 am   BACKBONE|DICT|INTERRES
    51   24   94 1    
    52   25   26 2    
    53   25   27 1    
    54   27   28 1    
    55   27   29 1    
    56   27   95 1    
    57   28   96 1    
    58   28   97 1    
    59   28   98 1    
    60   29   30 am   BACKBONE|DICT|INTERRES
    61   29   99 1    
    62   30   31 2    
    63   30   32 1    
    64   32   33 1    
    65   32   34 1    
    66   32  100 1    
    67   33  101 1    
    68   33  102 1    
    69   33  103 1    
    70   34   35 am   BACKBONE|DICT|INTERRES
    71   34  104 1    
    72   35   36 2    
    73   37   38 2    
    74   37   39 am   BACKBONE|DICT|INTERRES
    75   39   40 1    
    76   39  105 1    
    77   40   41 1    
    78   40   42 1    
    79   40  106 1    
    80   41  107 1    
    81   41  108 1    
    82   41  109 1    
    83   42   43 2    
    84   42   44 am   BACKBONE|DICT|INTERRES
    85   44   45 1    
    86   44  110 1    
    87   45   46 1    
    88   45   47 1    
    89   45  111 1    
    90   46  112 1    
    91   46  113 1    
    92   46  114 1    
    93   47   48 2    
    94   47   49 am   BACKBONE|DICT|INTERRES
    95   49   50 1    
    96   49  115 1    
    97   50   51 1    
    98   50   52 1    
    99   50  116 1    
   100   51  117 1    
   101   51  118 1    
   102   51  119 1    
   103   52   53 2    
   104   52   54 am   BACKBONE|DICT|INTERRES
   105   54   55 1    
   106   54  120 1    
   107   55   56 1    
   108   55   57 1    
   109   55  121 1    
   110   56  122 1    
   111   56  123 1    
   112   56  124 1    
   113   57   58 2    
   114   57   59 am   BACKBONE|DICT|INTERRES
   115   59   60 1    
   116   59  125 1    
   117   60   61 1    
   118   60   62 1    
   119   60  126 1    
   120   61  127 1    
   121   61  128 1    
   122   61  129 1    
   123   62   63 2    
   124   62   64 am   BACKBONE|DICT|INTERRES
   125   64   65 1    
   126   64  130 1    
   127   65   66 1    
   128   65   69 1    
   129   65  131 1    
   130   66   67 am   BACKBONE|DICT|INTERRES
   131   66   68 2    
   132   67  132 1    
   133   67  133 1    
   134   69   70 1    
   135   69  134 1    
   136   69  135 1    
   137   70   71 1    
   138   71  136 1    
   139   71  137 1    
@<TRIPOS>SUBSTRUCTURE
     1 UNK         1 GROUP             0       ****    0 ROOT    
