@<TRIPOS>MOLECULE
3R136
137   139    1
SMALL
USER_CHARGES


@<TRIPOS>ATOM
      1 CA         28.4256   23.1866   -1.7239 C.3       0 UNK        -0.1979 
      2 C          28.2605   23.1478   -0.2126 C.2       0 UNK         0.4864 
      3 O          27.2093   22.7276    0.2730 O.2       0 UNK        -0.5359 
      4 N          29.2814   23.5958    0.5351 N.am      1 UNK        -0.4318 
      5 CA         29.3105   23.6893    2.0012 C.3       1 UNK         0.0824 
      6 C6         29.3184   22.2930    2.7054 C.3       12 UNK        -0.0944 
      7 S7         30.9488   21.4884    2.8979 S.3       12 UNK        -0.2672 
      8 C8         31.7179   21.4810    1.2419 C.3       12 UNK         0.0333 
      9 C9         32.4868   22.7636    0.9376 C.ar      12 UNK        -0.0807 
     10 C10        33.3646   23.3145    1.8799 C.ar      12 UNK        -0.0894 
     11 C11        34.0348   24.5119    1.6150 C.ar      12 UNK        -0.0804 
     12 C12        33.8283   25.1577    0.3939 C.ar      12 UNK        -0.0824 
     13 C13        32.9519   24.6216   -0.5523 C.ar      12 UNK        -0.0762 
     14 C14        32.3144   23.4059   -0.2923 C.ar      12 UNK        -0.0782 
     15 C15        32.6405   25.3948   -1.8238 C.3       12 UNK         0.0230 
     16 S16        30.9713   26.1270   -1.7566 S.3       12 UNK        -0.2608 
     17 C17        31.0073   27.0186   -0.1594 C.3       12 UNK        -0.0989 
     18 CA         29.9479   28.1413   -0.0714 C.3       5 UNK         0.0716 
     19 N          28.6047   27.6620   -0.4257 N.am      5 UNK        -0.4135 
     20 C          27.4829   28.3935   -0.4620 C.2       4 UNK         0.5031 
     21 O          27.3860   29.5389   -0.0220 O.2       4 UNK        -0.5229 
     22 CA         26.2711   27.7414   -1.1315 C.3       4 UNK         0.0329 
     23 CB         26.5755   27.3497   -2.5935 C.3       4 UNK        -0.2001 
     24 N          25.7921   26.5877   -0.3693 N.am      4 UNK        -0.4303 
     25 C          24.5492   26.0939   -0.4780 C.2       3 UNK         0.5044 
     26 O          23.6892   26.5758   -1.2173 O.2       3 UNK        -0.5152 
     27 CA         24.1822   24.8491    0.3492 C.3       3 UNK         0.0319 
     28 CB         24.1218   23.6064   -0.5544 C.3       3 UNK        -0.2001 
     29 N          25.0883   24.5948    1.4715 N.am      3 UNK        -0.4354 
     30 C          25.0565   25.2798    2.6255 C.2       2 UNK         0.4964 
     31 O          24.2707   26.2020    2.8452 O.2       2 UNK        -0.5047 
     32 CA         26.0505   24.8795    3.7320 C.3       2 UNK         0.0288 
     33 CB         25.3426   24.0438    4.8112 C.3       2 UNK        -0.2113 
     34 N          27.2233   24.1436    3.2563 N.am      2 UNK        -0.4145 
     35 C          28.1727   24.6378    2.4502 C.2       1 UNK         0.5006 
     36 O          28.1510   25.7914    2.0127 O.2       1 UNK        -0.5103 
     37 C          30.0305   28.8564    1.2927 C.2       5 UNK         0.5055 
     38 O          30.7400   29.8573    1.4007 O.2       5 UNK        -0.5220 
     39 N          29.2618   28.3766    2.2815 N.am      6 UNK        -0.4450 
     40 CA         29.1330   28.9548    3.6234 C.3       6 UNK         0.0367 
     41 CB         28.1723   28.0942    4.4566 C.3       6 UNK        -0.1929 
     42 C          28.6833   30.4285    3.6523 C.2       6 UNK         0.5070 
     43 O          29.0076   31.1316    4.6093 O.2       6 UNK        -0.5237 
     44 N          27.9596   30.8796    2.6162 N.am      7 UNK        -0.4739 
     45 CA         27.5541   32.2773    2.4519 C.3       7 UNK         0.0276 
     46 CB         26.3642   32.3559    1.4821 C.3       7 UNK        -0.1927 
     47 C          28.7034   33.1807    1.9695 C.2       7 UNK         0.5013 
     48 O          28.6474   34.3877    2.2083 O.2       7 UNK        -0.5193 
     49 N          29.7139   32.6006    1.3043 N.am      8 UNK        -0.4253 
     50 CA         30.9188   33.3045    0.8640 C.3       8 UNK         0.0242 
     51 CB         31.5007   32.6299   -0.3900 C.3       8 UNK        -0.2000 
     52 C          31.9556   33.3686    1.9942 C.2       8 UNK         0.4948 
     53 O          32.4995   34.4442    2.2488 O.2       8 UNK        -0.5275 
     54 N          32.1910   32.2355    2.6680 N.am      9 UNK        -0.4246 
     55 CA         33.0606   32.1256    3.8364 C.3       9 UNK         0.0261 
     56 CB         34.5386   32.0601    3.4071 C.3       9 UNK        -0.1959 
     57 C          32.6697   30.8696    4.6157 C.2       9 UNK         0.5033 
     58 O          32.4808   29.8176    4.0043 O.2       9 UNK        -0.5390 
     59 N          32.5978   30.9749    5.9482 N.am      10 UNK        -0.4215 
     60 CA         32.2475   29.8812    6.8617 C.3       10 UNK         0.0240 
     61 CB         31.7119   30.4807    8.1757 C.3       10 UNK        -0.1982 
     62 C          33.4236   28.9071    7.0851 C.2       10 UNK         0.4970 
     63 O          33.8784   28.7313    8.2173 O.2       10 UNK        -0.4916 
     64 N          33.9108   28.3157    5.9909 N.am      11 UNK        -0.4279 
     65 CA         34.9751   27.3060    5.9546 C.3       11 UNK         0.1003 
     66 C          34.5679   25.9426    6.5847 C.2       11 UNK         0.5709 
     67 N          35.5407   25.1078    6.9260 N.am      11 UNK        -0.7358 
     68 O          33.3914   25.6232    6.7496 O.2       11 UNK        -0.4999 
     69 C69        35.5445   27.1569    4.5181 C.3       12 UNK        -0.0954 
     70 S70        34.2896   26.7003    3.2721 S.3       12 UNK        -0.2268 
     71 C71        34.9600   25.1271    2.6534 C.3       12 UNK         0.0203 
     72 H72        29.4150   23.5303   -2.0219 H         1 UNK         0.0888 
     73 H73        28.2740   22.1916   -2.1412 H         1 UNK         0.0888 
     74 H74        27.6864   23.8559   -2.1632 H         1 UNK         0.0888 
     75 H75        30.1013   23.9665    0.0768 H         1 UNK         0.3017 
     76 H76        30.2330   24.2072    2.2684 H         1 UNK         0.0873 
     77 H77        28.6396   21.5937    2.2152 H         1 UNK         0.0745 
     78 H78        28.9651   22.3717    3.7341 H         1 UNK         0.0745 
     79 H79        30.9517   21.2831    0.4910 H         1 UNK         0.0705 
     80 H80        32.4182   20.6464    1.1920 H         1 UNK         0.0705 
     81 H81        33.5116   22.8188    2.8297 H         1 UNK         0.1334 
     82 H82        34.3234   26.0997    0.2003 H         1 UNK         0.1417 
     83 H83        31.6530   22.9828   -1.0361 H         1 UNK         0.1562 
     84 H84        32.7077   24.7300   -2.6861 H         1 UNK         0.0748 
     85 H85        33.3725   26.1873   -1.9873 H         1 UNK         0.0748 
     86 H86        32.0046   27.4406   -0.0174 H         1 UNK         0.0940 
     87 H87        30.8652   26.2932    0.6443 H         1 UNK         0.0940 
     88 H88        30.2026   28.8906   -0.8239 H         1 UNK         0.0703 
     89 H89        28.5797   26.7305   -0.8109 H         1 UNK         0.3081 
     90 H90        25.4831   28.4982   -1.1429 H         1 UNK         0.0719 
     91 H91        25.6676   27.0647   -3.1252 H         1 UNK         0.0809 
     92 H92        27.0147   28.1856   -3.1399 H         1 UNK         0.0809 
     93 H93        27.2718   26.5131   -2.6586 H         1 UNK         0.0809 
     94 H94        26.4268   26.1842    0.3085 H         1 UNK         0.2990 
     95 H95        23.1802   25.0127    0.7522 H         1 UNK         0.0690 
     96 H96        23.3571   23.7231   -1.3235 H         1 UNK         0.0788 
     97 H97        23.8747   22.7096    0.0141 H         1 UNK         0.0788 
     98 H98        25.0679   23.4310   -1.0667 H         1 UNK         0.0788 
     99 H99        25.7790   23.8623    1.3398 H         1 UNK         0.2993 
    100 H100       26.4006   25.8023    4.1956 H         1 UNK         0.0949 
    101 H101       24.9823   23.0938    4.4143 H         1 UNK         0.0767 
    102 H102       26.0079   23.8294    5.6479 H         1 UNK         0.0767 
    103 H103       24.4801   24.5762    5.2151 H         1 UNK         0.0767 
    104 H104       27.2861   23.1746    3.5322 H         1 UNK         0.3013 
    105 H105       28.7355   27.5228    2.1032 H         1 UNK         0.3121 
    106 H106       30.1156   28.9052    4.0918 H         1 UNK         0.0774 
    107 H107       27.1770   28.0653    4.0117 H         1 UNK         0.0815 
    108 H108       28.0680   28.4903    5.4678 H         1 UNK         0.0815 
    109 H109       28.5361   27.0709    4.5483 H         1 UNK         0.0815 
    110 H110       27.7491   30.2515    1.8455 H         1 UNK         0.2987 
    111 H111       27.2239   32.6576    3.4214 H         1 UNK         0.0949 
    112 H112       26.6416   32.0426    0.4751 H         1 UNK         0.0806 
    113 H113       25.5371   31.7280    1.8137 H         1 UNK         0.0806 
    114 H114       25.9881   33.3774    1.4109 H         1 UNK         0.0806 
    115 H115       29.7220   31.5903    1.2120 H         1 UNK         0.3010 
    116 H116       30.6535   34.3290    0.5928 H         1 UNK         0.0829 
    117 H117       30.7675   32.5925   -1.1958 H         1 UNK         0.0813 
    118 H118       32.3627   33.1852   -0.7618 H         1 UNK         0.0813 
    119 H119       31.8344   31.6110   -0.1937 H         1 UNK         0.0813 
    120 H120       31.7169   31.3752    2.3988 H         1 UNK         0.3038 
    121 H121       32.9072   32.9989    4.4742 H         1 UNK         0.0769 
    122 H122       34.7252   31.2132    2.7452 H         1 UNK         0.0811 
    123 H123       35.1929   31.9487    4.2726 H         1 UNK         0.0811 
    124 H124       34.8448   32.9666    2.8852 H         1 UNK         0.0811 
    125 H125       32.8138   31.8633    6.3776 H         1 UNK         0.3204 
    126 H126       31.4367   29.3023    6.4134 H         1 UNK         0.0748 
    127 H127       32.4653   31.0849    8.6828 H         1 UNK         0.0771 
    128 H128       30.8400   31.1104    7.9965 H         1 UNK         0.0771 
    129 H129       31.4034   29.6950    8.8668 H         1 UNK         0.0771 
    130 H130       33.4702   28.5312    5.1007 H         1 UNK         0.2980 
    131 H131       35.7822   27.6950    6.5784 H         1 UNK         0.0545 
    132 H132       35.2995   24.2162    7.3296 H         1 UNK         0.3459 
    133 H133       36.5098   25.3525    6.7962 H         1 UNK         0.3459 
    134 H134       35.9830   28.1055    4.2044 H         1 UNK         0.0616 
    135 H135       36.3664   26.4393    4.5021 H         1 UNK         0.0616 
    136 H136       35.1084   24.4462    3.4932 H         1 UNK         0.0634 
    137 H137       35.9412   25.2998    2.2088 H         1 UNK         0.0634 
@<TRIPOS>BOND
     1    1    2 1    
     2    1   72 1    
     3    1   73 1    
     4    1   74 1    
     5    2    3 2    
     6    2    4 am   BACKBONE|DICT|INTERRES
     7    4    5 1    
     8    4   75 1    
     9    5    6 1    
    10    5   35 1    
    11    5   76 1    
    12    6    7 1    
    13    6   77 1    
    14    6   78 1    
    15    7    8 1    
    16    8    9 1    
    17    8   79 1    
    18    8   80 1    
    19    9   10 ar   
    20    9   14 ar   
    21   10   11 ar   
    22   10   81 1    
    23   11   12 ar   
    24   11   71 1    
    25   12   13 ar   
    26   12   82 1    
    27   13   14 ar   
    28   13   15 1    
    29   14   83 1    
    30   15   16 1    
    31   15   84 1    
    32   15   85 1    
    33   16   17 1    
    34   17   18 1    
    35   17   86 1    
    36   17   87 1    
    37   18   19 1    
    38   18   37 1    
    39   18   88 1    
    40   19   20 am   BACKBONE|DICT|INTERRES
    41   19   89 1    
    42   20   21 2    
    43   20   22 1    
    44   22   23 1    
    45   22   24 1    
    46   22   90 1    
    47   23   91 1    
    48   23   92 1    
    49   23   93 1    
    50   24   25 am   BACKBONE|DICT|INTERRES
    51   24   94 1    
    52   25   26 2    
    53   25   27 1    
    54   27   28 1    
    55   27   29 1    
    56   27   95 1    
    57   28   96 1    
    58   28   97 1    
    59   28   98 1    
    60   29   30 am   BACKBONE|DICT|INTERRES
    61   29   99 1    
    62   30   31 2    
    63   30   32 1    
    64   32   33 1    
    65   32   34 1    
    66   32  100 1    
    67   33  101 1    
    68   33  102 1    
    69   33  103 1    
    70   34   35 am   BACKBONE|DICT|INTERRES
    71   34  104 1    
    72   35   36 2    
    73   37   38 2    
    74   37   39 am   BACKBONE|DICT|INTERRES
    75   39   40 1    
    76   39  105 1    
    77   40   41 1    
    78   40   42 1    
    79   40  106 1    
    80   41  107 1    
    81   41  108 1    
    82   41  109 1    
    83   42   43 2    
    84   42   44 am   BACKBONE|DICT|INTERRES
    85   44   45 1    
    86   44  110 1    
    87   45   46 1    
    88   45   47 1    
    89   45  111 1    
    90   46  112 1    
    91   46  113 1    
    92   46  114 1    
    93   47   48 2    
    94   47   49 am   BACKBONE|DICT|INTERRES
    95   49   50 1    
    96   49  115 1    
    97   50   51 1    
    98   50   52 1    
    99   50  116 1    
   100   51  117 1    
   101   51  118 1    
   102   51  119 1    
   103   52   53 2    
   104   52   54 am   BACKBONE|DICT|INTERRES
   105   54   55 1    
   106   54  120 1    
   107   55   56 1    
   108   55   57 1    
   109   55  121 1    
   110   56  122 1    
   111   56  123 1    
   112   56  124 1    
   113   57   58 2    
   114   57   59 am   BACKBONE|DICT|INTERRES
   115   59   60 1    
   116   59  125 1    
   117   60   61 1    
   118   60   62 1    
   119   60  126 1    
   120   61  127 1    
   121   61  128 1    
   122   61  129 1    
   123   62   63 2    
   124   62   64 am   BACKBONE|DICT|INTERRES
   125   64   65 1    
   126   64  130 1    
   127   65   66 1    
   128   65   69 1    
   129   65  131 1    
   130   66   67 am   BACKBONE|DICT|INTERRES
   131   66   68 2    
   132   67  132 1    
   133   67  133 1    
   134   69   70 1    
   135   69  134 1    
   136   69  135 1    
   137   70   71 1    
   138   71  136 1    
   139   71  137 1    
@<TRIPOS>SUBSTRUCTURE
     1 UNK         1 GROUP             0       ****    0 ROOT    
