@<TRIPOS>MOLECULE
3R136
137   139    1
SMALL
USER_CHARGES


@<TRIPOS>ATOM
      1 CA         27.0980   18.5631   -1.5826 C.3       0 UNK        -0.1979 
      2 C          28.0526   19.6733   -1.9976 C.2       0 UNK         0.4864 
      3 O          28.6201   19.6147   -3.0899 O.2       0 UNK        -0.5359 
      4 N          28.2394   20.6787   -1.1324 N.am      1 UNK        -0.4318 
      5 CA         29.0637   21.8626   -1.3942 C.3       1 UNK         0.0824 
      6 C6         29.4559   22.5711   -0.0730 C.3       12 UNK        -0.0944 
      7 S7         30.9706   23.5805   -0.2448 S.3       12 UNK        -0.2672 
      8 C8         32.1403   22.7148    0.8515 C.3       12 UNK         0.0333 
      9 C9         32.0822   23.2446    2.2788 C.ar      12 UNK        -0.0807 
     10 C10        33.0691   24.1183    2.7446 C.ar      12 UNK        -0.0894 
     11 C11        33.0413   24.5892    4.0614 C.ar      12 UNK        -0.0804 
     12 C12        32.0034   24.1983    4.9132 C.ar      12 UNK        -0.0824 
     13 C13        31.0105   23.3253    4.4574 C.ar      12 UNK        -0.0762 
     14 C14        31.0605   22.8466    3.1451 C.ar      12 UNK        -0.0782 
     15 C15        29.8896   22.8698    5.3772 C.3       12 UNK         0.0230 
     16 S16        28.3426   23.7639    5.0331 S.3       12 UNK        -0.2608 
     17 C17        28.5467   25.2858    6.0216 C.3       12 UNK        -0.0989 
     18 CA         28.6887   26.5874    5.1830 C.3       5 UNK         0.0716 
     19 N          27.6276   26.6908    4.1680 N.am      5 UNK        -0.4135 
     20 C          27.5799   27.5054    3.1048 C.2       4 UNK         0.5031 
     21 O          28.4016   28.3962    2.8680 O.2       4 UNK        -0.5229 
     22 CA         26.3648   27.3329    2.1786 C.3       4 UNK         0.0329 
     23 CB         25.2382   28.2925    2.5957 C.3       4 UNK        -0.2001 
     24 N          26.7044   27.5685    0.7728 N.am      4 UNK        -0.4303 
     25 C          27.5093   26.7825    0.0460 C.2       3 UNK         0.5044 
     26 O          28.0283   25.7477    0.4696 O.2       3 UNK        -0.5152 
     27 CA         27.7699   27.2252   -1.3992 C.3       3 UNK         0.0319 
     28 CB         28.7914   28.3727   -1.4613 C.3       3 UNK        -0.2001 
     29 N          28.2779   26.0901   -2.1632 N.am      3 UNK        -0.4354 
     30 C          28.0542   25.8624   -3.4625 C.2       2 UNK         0.4964 
     31 O          27.3943   26.6151   -4.1807 O.2       2 UNK        -0.5047 
     32 CA         28.6752   24.5972   -4.0870 C.3       2 UNK         0.0288 
     33 CB         29.8475   24.9747   -5.0088 C.3       2 UNK        -0.2113 
     34 N          29.1448   23.6108   -3.1092 N.am      2 UNK        -0.4145 
     35 C          28.3512   22.8236   -2.3714 C.2       1 UNK         0.5006 
     36 O          27.1181   22.8527   -2.4258 O.2       1 UNK        -0.5103 
     37 C          28.7694   27.8319    6.1058 C.2       5 UNK         0.5055 
     38 O          28.7771   27.6970    7.3313 O.2       5 UNK        -0.5220 
     39 N          28.8020   29.0223    5.5084 N.am      6 UNK        -0.4450 
     40 CA         28.8300   30.3269    6.1548 C.3       6 UNK         0.0367 
     41 CB         27.3945   30.7559    6.5289 C.3       6 UNK        -0.1929 
     42 C          29.5486   31.3029    5.2126 C.2       6 UNK         0.5070 
     43 O          30.4407   30.8846    4.4705 O.2       6 UNK        -0.5237 
     44 N          29.1428   32.5794    5.2247 N.am      7 UNK        -0.4739 
     45 CA         29.7195   33.6706    4.4291 C.3       7 UNK         0.0276 
     46 CB         29.0285   34.9888    4.8139 C.3       7 UNK        -0.1927 
     47 C          29.6711   33.4668    2.9019 C.2       7 UNK         0.5013 
     48 O          30.4717   34.0814    2.1979 O.2       7 UNK        -0.5193 
     49 N          28.7608   32.6072    2.4199 N.am      8 UNK        -0.4253 
     50 CA         28.6465   32.2076    1.0154 C.3       8 UNK         0.0242 
     51 CB         27.3507   31.4063    0.8094 C.3       8 UNK        -0.2000 
     52 C          29.8766   31.4181    0.5327 C.2       8 UNK         0.4948 
     53 O          30.4634   31.7807   -0.4871 O.2       8 UNK        -0.5275 
     54 N          30.2610   30.3767    1.2860 N.am      9 UNK        -0.4246 
     55 CA         31.4875   29.6038    1.0577 C.3       9 UNK         0.0261 
     56 CB         31.3172   28.1986    1.6599 C.3       9 UNK        -0.1959 
     57 C          32.7430   30.2844    1.6383 C.2       9 UNK         0.5033 
     58 O          33.8526   29.8893    1.2787 O.2       9 UNK        -0.5390 
     59 N          32.5417   31.2700    2.5268 N.am      10 UNK        -0.4215 
     60 CA         33.5268   31.9415    3.3835 C.3       10 UNK         0.0240 
     61 CB         34.6284   32.6466    2.5632 C.3       10 UNK        -0.1982 
     62 C          34.0668   30.9817    4.4604 C.2       10 UNK         0.4970 
     63 O          35.2728   30.9397    4.7118 O.2       10 UNK        -0.4916 
     64 N          33.1437   30.2242    5.0610 N.am      11 UNK        -0.4279 
     65 CA         33.3816   29.1886    6.0720 C.3       11 UNK         0.1003 
     66 C          32.7633   29.5840    7.4400 C.2       11 UNK         0.5709 
     67 N          33.0581   28.8307    8.4910 N.am      11 UNK        -0.7358 
     68 O          32.0297   30.5624    7.5708 O.2       11 UNK        -0.4999 
     69 C69        32.8556   27.8163    5.5695 C.3       12 UNK        -0.0954 
     70 S70        33.8246   27.2342    4.1368 S.3       12 UNK        -0.2268 
     71 C71        34.1533   25.4989    4.5590 C.3       12 UNK         0.0203 
     72 H72        26.6800   18.7340   -0.5907 H         1 UNK         0.0888 
     73 H73        26.2728   18.4943   -2.2909 H         1 UNK         0.0888 
     74 H74        27.6182   17.6057   -1.5706 H         1 UNK         0.0888 
     75 H75        27.7157   20.6908   -0.2690 H         1 UNK         0.3017 
     76 H76        29.9779   21.5093   -1.8777 H         1 UNK         0.0873 
     77 H77        28.6441   23.1947    0.3052 H         1 UNK         0.0745 
     78 H78        29.6270   21.8211    0.6984 H         1 UNK         0.0745 
     79 H79        33.1454   22.8451    0.4474 H         1 UNK         0.0705 
     80 H80        31.9528   21.6402    0.8378 H         1 UNK         0.0705 
     81 H81        33.8683   24.4274    2.0846 H         1 UNK         0.1334 
     82 H82        31.9761   24.5633    5.9307 H         1 UNK         0.1417 
     83 H83        30.2953   22.1652    2.8031 H         1 UNK         0.1562 
     84 H84        30.1692   22.9801    6.4260 H         1 UNK         0.0748 
     85 H85        29.7141   21.8035    5.2269 H         1 UNK         0.0748 
     86 H86        27.6770   25.3532    6.6786 H         1 UNK         0.0940 
     87 H87        29.4070   25.1733    6.6839 H         1 UNK         0.0940 
     88 H88        29.6394   26.5341    4.6477 H         1 UNK         0.0703 
     89 H89        26.8859   26.0143    4.2737 H         1 UNK         0.3081 
     90 H90        25.9995   26.3072    2.2656 H         1 UNK         0.0719 
     91 H91        24.9322   28.1115    3.6271 H         1 UNK         0.0809 
     92 H92        25.5472   29.3362    2.5294 H         1 UNK         0.0809 
     93 H93        24.3540   28.1634    1.9712 H         1 UNK         0.0809 
     94 H94        26.3344   28.4082    0.3537 H         1 UNK         0.2990 
     95 H95        26.8198   27.5586   -1.8223 H         1 UNK         0.0690 
     96 H96        28.9287   28.7272   -2.4829 H         1 UNK         0.0788 
     97 H97        29.7657   28.0638   -1.0822 H         1 UNK         0.0788 
     98 H98        28.4632   29.2229   -0.8665 H         1 UNK         0.0788 
     99 H99        28.7716   25.4005   -1.6099 H         1 UNK         0.2993 
    100 H100       27.8989   24.1284   -4.6961 H         1 UNK         0.0949 
    101 H101       30.2478   24.0998   -5.5215 H         1 UNK         0.0767 
    102 H102       29.5294   25.6801   -5.7780 H         1 UNK         0.0767 
    103 H103       30.6618   25.4430   -4.4542 H         1 UNK         0.0767 
    104 H104       30.1447   23.5479   -2.9770 H         1 UNK         0.3013 
    105 H105       28.8254   29.0334    4.4886 H         1 UNK         0.3121 
    106 H106       29.4285   30.2615    7.0648 H         1 UNK         0.0774 
    107 H107       26.7739   30.9070    5.6446 H         1 UNK         0.0815 
    108 H108       26.9072   30.0014    7.1468 H         1 UNK         0.0815 
    109 H109       27.3894   31.6806    7.1068 H         1 UNK         0.0815 
    110 H110       28.3960   32.8334    5.8554 H         1 UNK         0.2987 
    111 H111       30.7737   33.7471    4.7034 H         1 UNK         0.0949 
    112 H112       29.1500   35.2072    5.8750 H         1 UNK         0.0806 
    113 H113       29.4542   35.8292    4.2633 H         1 UNK         0.0806 
    114 H114       27.9604   34.9637    4.5945 H         1 UNK         0.0806 
    115 H115       28.1439   32.1557    3.0785 H         1 UNK         0.3010 
    116 H116       28.5796   33.1187    0.4165 H         1 UNK         0.0829 
    117 H117       27.3640   30.4670    1.3618 H         1 UNK         0.0813 
    118 H118       27.2053   31.1683   -0.2448 H         1 UNK         0.0813 
    119 H119       26.4773   31.9733    1.1320 H         1 UNK         0.0813 
    120 H120       29.7014   30.1050    2.0861 H         1 UNK         0.3038 
    121 H121       31.6424   29.4940   -0.0176 H         1 UNK         0.0769 
    122 H122       30.4650   27.6751    1.2272 H         1 UNK         0.0811 
    123 H123       31.1693   28.2401    2.7397 H         1 UNK         0.0811 
    124 H124       32.1988   27.5832    1.4762 H         1 UNK         0.0811 
    125 H125       31.5766   31.4337    2.7885 H         1 UNK         0.3204 
    126 H126       32.9776   32.7167    3.9193 H         1 UNK         0.0748 
    127 H127       35.2839   31.9353    2.0604 H         1 UNK         0.0771 
    128 H128       34.1986   33.3023    1.8059 H         1 UNK         0.0771 
    129 H129       35.2565   33.2626    3.2077 H         1 UNK         0.0771 
    130 H130       32.1646   30.3874    4.8376 H         1 UNK         0.2980 
    131 H131       34.4550   29.0997    6.2496 H         1 UNK         0.0545 
    132 H132       33.6687   28.0330    8.4097 H         1 UNK         0.3459 
    133 H133       32.6682   29.0731    9.3882 H         1 UNK         0.3459 
    134 H134       31.8072   27.8872    5.2759 H         1 UNK         0.0616 
    135 H135       32.9015   27.0665    6.3601 H         1 UNK         0.0616 
    136 H136       35.0960   25.2051    4.0949 H         1 UNK         0.0634 
    137 H137       34.3022   25.3857    5.6336 H         1 UNK         0.0634 
@<TRIPOS>BOND
     1    1    2 1    
     2    1   72 1    
     3    1   73 1    
     4    1   74 1    
     5    2    3 2    
     6    2    4 am   BACKBONE|DICT|INTERRES
     7    4    5 1    
     8    4   75 1    
     9    5    6 1    
    10    5   35 1    
    11    5   76 1    
    12    6    7 1    
    13    6   77 1    
    14    6   78 1    
    15    7    8 1    
    16    8    9 1    
    17    8   79 1    
    18    8   80 1    
    19    9   10 ar   
    20    9   14 ar   
    21   10   11 ar   
    22   10   81 1    
    23   11   12 ar   
    24   11   71 1    
    25   12   13 ar   
    26   12   82 1    
    27   13   14 ar   
    28   13   15 1    
    29   14   83 1    
    30   15   16 1    
    31   15   84 1    
    32   15   85 1    
    33   16   17 1    
    34   17   18 1    
    35   17   86 1    
    36   17   87 1    
    37   18   19 1    
    38   18   37 1    
    39   18   88 1    
    40   19   20 am   BACKBONE|DICT|INTERRES
    41   19   89 1    
    42   20   21 2    
    43   20   22 1    
    44   22   23 1    
    45   22   24 1    
    46   22   90 1    
    47   23   91 1    
    48   23   92 1    
    49   23   93 1    
    50   24   25 am   BACKBONE|DICT|INTERRES
    51   24   94 1    
    52   25   26 2    
    53   25   27 1    
    54   27   28 1    
    55   27   29 1    
    56   27   95 1    
    57   28   96 1    
    58   28   97 1    
    59   28   98 1    
    60   29   30 am   BACKBONE|DICT|INTERRES
    61   29   99 1    
    62   30   31 2    
    63   30   32 1    
    64   32   33 1    
    65   32   34 1    
    66   32  100 1    
    67   33  101 1    
    68   33  102 1    
    69   33  103 1    
    70   34   35 am   BACKBONE|DICT|INTERRES
    71   34  104 1    
    72   35   36 2    
    73   37   38 2    
    74   37   39 am   BACKBONE|DICT|INTERRES
    75   39   40 1    
    76   39  105 1    
    77   40   41 1    
    78   40   42 1    
    79   40  106 1    
    80   41  107 1    
    81   41  108 1    
    82   41  109 1    
    83   42   43 2    
    84   42   44 am   BACKBONE|DICT|INTERRES
    85   44   45 1    
    86   44  110 1    
    87   45   46 1    
    88   45   47 1    
    89   45  111 1    
    90   46  112 1    
    91   46  113 1    
    92   46  114 1    
    93   47   48 2    
    94   47   49 am   BACKBONE|DICT|INTERRES
    95   49   50 1    
    96   49  115 1    
    97   50   51 1    
    98   50   52 1    
    99   50  116 1    
   100   51  117 1    
   101   51  118 1    
   102   51  119 1    
   103   52   53 2    
   104   52   54 am   BACKBONE|DICT|INTERRES
   105   54   55 1    
   106   54  120 1    
   107   55   56 1    
   108   55   57 1    
   109   55  121 1    
   110   56  122 1    
   111   56  123 1    
   112   56  124 1    
   113   57   58 2    
   114   57   59 am   BACKBONE|DICT|INTERRES
   115   59   60 1    
   116   59  125 1    
   117   60   61 1    
   118   60   62 1    
   119   60  126 1    
   120   61  127 1    
   121   61  128 1    
   122   61  129 1    
   123   62   63 2    
   124   62   64 am   BACKBONE|DICT|INTERRES
   125   64   65 1    
   126   64  130 1    
   127   65   66 1    
   128   65   69 1    
   129   65  131 1    
   130   66   67 am   BACKBONE|DICT|INTERRES
   131   66   68 2    
   132   67  132 1    
   133   67  133 1    
   134   69   70 1    
   135   69  134 1    
   136   69  135 1    
   137   70   71 1    
   138   71  136 1    
   139   71  137 1    
@<TRIPOS>SUBSTRUCTURE
     1 UNK         1 GROUP             0       ****    0 ROOT    
