@<TRIPOS>MOLECULE
3R136
137   139    1
SMALL
USER_CHARGES


@<TRIPOS>ATOM
      1 CA         27.5295   20.4440   -3.4113 C.3       0 UNK        -0.1979 
      2 C          27.9917   21.6889   -2.6699 C.2       0 UNK         0.4864 
      3 O          27.4766   22.7805   -2.9202 O.2       0 UNK        -0.5359 
      4 N          28.9431   21.5383   -1.7360 N.am      1 UNK        -0.4318 
      5 CA         29.5426   22.6349   -0.9618 C.3       1 UNK         0.0824 
      6 C6         30.9066   22.2469   -0.3444 C.3       12 UNK        -0.0944 
      7 S7         30.8069   20.9764    0.9612 S.3       12 UNK        -0.2672 
      8 C8         32.0937   21.5574    2.1141 C.3       12 UNK         0.0333 
      9 C9         31.7014   22.8434    2.8313 C.ar      12 UNK        -0.0807 
     10 C10        32.3515   24.0483    2.5435 C.ar      12 UNK        -0.0894 
     11 C11        32.0158   25.2187    3.2319 C.ar      12 UNK        -0.0804 
     12 C12        31.0291   25.1745    4.2212 C.ar      12 UNK        -0.0824 
     13 C13        30.3523   23.9813    4.5020 C.ar      12 UNK        -0.0762 
     14 C14        30.7012   22.8199    3.8062 C.ar      12 UNK        -0.0782 
     15 C15        29.2490   23.9121    5.5564 C.3       12 UNK         0.0230 
     16 S16        28.1212   25.3491    5.5850 S.3       12 UNK        -0.2608 
     17 C17        27.6586   25.5461    3.8288 C.3       12 UNK        -0.0989 
     18 CA         28.1079   26.9280    3.2857 C.3       5 UNK         0.0716 
     19 N          28.5625   26.8582    1.8899 N.am      5 UNK        -0.4135 
     20 C          29.1270   27.8631    1.2020 C.2       4 UNK         0.5031 
     21 O          29.3380   28.9773    1.6730 O.2       4 UNK        -0.5229 
     22 CA         29.4626   27.6047   -0.2738 C.3       4 UNK         0.0329 
     23 CB         30.8266   26.9078   -0.4160 C.3       4 UNK        -0.2001 
     24 N          28.4112   26.8154   -0.9191 N.am      4 UNK        -0.4303 
     25 C          27.2486   27.3256   -1.3543 C.2       3 UNK         0.5044 
     26 O          26.9971   28.5300   -1.3721 O.2       3 UNK        -0.5152 
     27 CA         26.1690   26.3320   -1.8253 C.3       3 UNK         0.0319 
     28 CB         26.2973   26.0741   -3.3346 C.3       3 UNK        -0.2001 
     29 N          26.2052   25.0535   -1.1107 N.am      3 UNK        -0.4354 
     30 C          25.9402   24.9025    0.1980 C.2       2 UNK         0.4964 
     31 O          25.5544   25.8165    0.9266 O.2       2 UNK        -0.5047 
     32 CA         26.2237   23.5168    0.8148 C.3       2 UNK         0.0288 
     33 CB         24.9693   22.6322    0.7509 C.3       2 UNK        -0.2113 
     34 N          27.3435   22.8207    0.1718 N.am      2 UNK        -0.4145 
     35 C          28.5850   23.3147    0.0455 C.2       1 UNK         0.5006 
     36 O          28.9519   24.3369    0.6242 O.2       1 UNK        -0.5103 
     37 C          27.0359   28.0104    3.5457 C.2       5 UNK         0.5055 
     38 O          26.9600   28.5314    4.6592 O.2       5 UNK        -0.5220 
     39 N          26.2659   28.3778    2.5108 N.am      6 UNK        -0.4450 
     40 CA         25.3382   29.5145    2.5083 C.3       6 UNK         0.0367 
     41 CB         24.5960   29.5521    1.1634 C.3       6 UNK        -0.1929 
     42 C          26.0065   30.8776    2.7956 C.2       6 UNK         0.5070 
     43 O          25.3186   31.7986    3.2368 O.2       6 UNK        -0.5237 
     44 N          27.3228   30.9804    2.5715 N.am      7 UNK        -0.4739 
     45 CA         28.1641   32.1150    2.9373 C.3       7 UNK         0.0276 
     46 CB         28.3337   33.0447    1.7205 C.3       7 UNK        -0.1927 
     47 C          29.4962   31.5666    3.4709 C.2       7 UNK         0.5013 
     48 O          30.5522   31.8820    2.9206 O.2       7 UNK        -0.5193 
     49 N          29.4181   30.7265    4.5184 N.am      8 UNK        -0.4253 
     50 CA         30.5126   29.9203    5.0883 C.3       8 UNK         0.0242 
     51 CB         30.0052   29.1617    6.3253 C.3       8 UNK        -0.2000 
     52 C          31.8155   30.6678    5.4290 C.2       8 UNK         0.4948 
     53 O          32.8755   30.0420    5.4451 O.2       8 UNK        -0.5275 
     54 N          31.7457   31.9926    5.6239 N.am      9 UNK        -0.4246 
     55 CA         32.8963   32.9003    5.7154 C.3       9 UNK         0.0261 
     56 CB         32.3874   34.3321    5.9475 C.3       9 UNK        -0.1959 
     57 C          33.8400   32.8552    4.4925 C.2       9 UNK         0.5033 
     58 O          35.0055   33.2304    4.6250 O.2       9 UNK        -0.5390 
     59 N          33.3434   32.3710    3.3430 N.am      10 UNK        -0.4215 
     60 CA         34.1230   32.0616    2.1438 C.3       10 UNK         0.0240 
     61 CB         33.1626   31.7195    0.9924 C.3       10 UNK        -0.1982 
     62 C          35.1509   30.9274    2.3313 C.2       10 UNK         0.4970 
     63 O          36.1235   30.9003    1.5753 O.2       10 UNK        -0.4916 
     64 N          34.9398   30.0278    3.3050 N.am      11 UNK        -0.4279 
     65 CA         35.8837   28.9554    3.6619 C.3       11 UNK         0.1003 
     66 C          36.3534   29.0037    5.1432 C.2       11 UNK         0.5709 
     67 N          35.6004   29.5917    6.0648 N.am      11 UNK        -0.7358 
     68 O          37.4393   28.5207    5.4567 O.2       11 UNK        -0.4999 
     69 C69        35.3753   27.5520    3.2324 C.3       12 UNK        -0.0954 
     70 S70        33.9538   26.9191    4.1942 S.3       12 UNK        -0.2268 
     71 C71        32.7226   26.5283    2.9136 C.3       12 UNK         0.0203 
     72 H72        28.0553   19.5505   -3.0751 H         1 UNK         0.0888 
     73 H73        26.4622   20.2893   -3.2561 H         1 UNK         0.0888 
     74 H74        27.7054   20.5592   -4.4804 H         1 UNK         0.0888 
     75 H75        29.3164   20.6186   -1.5440 H         1 UNK         0.3017 
     76 H76        29.7643   23.4196   -1.6889 H         1 UNK         0.0873 
     77 H77        31.5724   21.8755   -1.1250 H         1 UNK         0.0745 
     78 H78        31.3944   23.1408    0.0462 H         1 UNK         0.0745 
     79 H79        33.0317   21.6844    1.5711 H         1 UNK         0.0705 
     80 H80        32.2762   20.7784    2.8558 H         1 UNK         0.0705 
     81 H81        33.1255   24.0742    1.7887 H         1 UNK         0.1334 
     82 H82        30.7866   26.0744    4.7686 H         1 UNK         0.1417 
     83 H83        30.1956   21.8883    4.0220 H         1 UNK         0.1562 
     84 H84        29.7112   23.8115    6.5392 H         1 UNK         0.0748 
     85 H85        28.6422   23.0172    5.4092 H         1 UNK         0.0748 
     86 H86        26.5824   25.3959    3.7196 H         1 UNK         0.0940 
     87 H87        28.1189   24.7416    3.2548 H         1 UNK         0.0940 
     88 H88        28.9899   27.2516    3.8405 H         1 UNK         0.0703 
     89 H89        28.5101   25.9481    1.4392 H         1 UNK         0.3081 
     90 H90        29.5315   28.5724   -0.7759 H         1 UNK         0.0719 
     91 H91        30.8716   25.9654    0.1297 H         1 UNK         0.0809 
     92 H92        31.0614   26.7032   -1.4606 H         1 UNK         0.0809 
     93 H93        31.6229   27.5421   -0.0243 H         1 UNK         0.0809 
     94 H94        28.5203   25.8111   -0.8869 H         1 UNK         0.2990 
     95 H95        25.1959   26.7913   -1.6383 H         1 UNK         0.0690 
     96 H96        27.2449   25.5939   -3.5831 H         1 UNK         0.0788 
     97 H97        26.2458   27.0076   -3.8967 H         1 UNK         0.0788 
     98 H98        25.4934   25.4330   -3.6970 H         1 UNK         0.0788 
     99 H99        26.5195   24.2485   -1.6427 H         1 UNK         0.2993 
    100 H100       26.4844   23.6662    1.8631 H         1 UNK         0.0949 
    101 H101       24.6732   22.4235   -0.2782 H         1 UNK         0.0767 
    102 H102       25.1298   21.6789    1.2551 H         1 UNK         0.0767 
    103 H103       24.1246   23.1182    1.2416 H         1 UNK         0.0767 
    104 H104       27.1220   21.9787   -0.3387 H         1 UNK         0.3013 
    105 H105       26.3377   27.8447    1.6533 H         1 UNK         0.3121 
    106 H106       24.6071   29.3389    3.2999 H         1 UNK         0.0774 
    107 H107       23.8445   30.3426    1.1551 H         1 UNK         0.0815 
    108 H108       25.2778   29.7433    0.3341 H         1 UNK         0.0815 
    109 H109       24.0805   28.6120    0.9653 H         1 UNK         0.0815 
    110 H110       27.8308   30.1714    2.2212 H         1 UNK         0.2987 
    111 H111       27.7034   32.6820    3.7494 H         1 UNK         0.0949 
    112 H112       28.7995   32.5257    0.8817 H         1 UNK         0.0806 
    113 H113       27.3734   33.4341    1.3826 H         1 UNK         0.0806 
    114 H114       28.9631   33.9007    1.9671 H         1 UNK         0.0806 
    115 H115       28.4937   30.5111    4.8683 H         1 UNK         0.3010 
    116 H116       30.7759   29.1831    4.3269 H         1 UNK         0.0829 
    117 H117       30.7972   28.5517    6.7629 H         1 UNK         0.0813 
    118 H118       29.6528   29.8440    7.0995 H         1 UNK         0.0813 
    119 H119       29.1887   28.4852    6.0761 H         1 UNK         0.0813 
    120 H120       30.8338   32.4232    5.5818 H         1 UNK         0.3038 
    121 H121       33.4827   32.5963    6.5849 H         1 UNK         0.0769 
    122 H122       33.2194   35.0304    6.0499 H         1 UNK         0.0811 
    123 H123       31.7955   34.4014    6.8604 H         1 UNK         0.0811 
    124 H124       31.7706   34.6798    5.1176 H         1 UNK         0.0811 
    125 H125       32.3515   32.1385    3.3010 H         1 UNK         0.3204 
    126 H126       34.6778   32.9616    1.8712 H         1 UNK         0.0748 
    127 H127       33.7095   31.5221    0.0694 H         1 UNK         0.0771 
    128 H128       32.5661   30.8334    1.2159 H         1 UNK         0.0771 
    129 H129       32.4748   32.5413    0.7920 H         1 UNK         0.0771 
    130 H130       34.1278   30.1139    3.9072 H         1 UNK         0.2980 
    131 H131       36.8063   29.1135    3.1007 H         1 UNK         0.0545 
    132 H132       34.6489   29.8770    5.8489 H         1 UNK         0.3459 
    133 H133       35.9287   29.6244    7.0160 H         1 UNK         0.3459 
    134 H134       35.1297   27.5713    2.1703 H         1 UNK         0.0616 
    135 H135       36.1826   26.8242    3.3288 H         1 UNK         0.0616 
    136 H136       33.1940   26.4645    1.9324 H         1 UNK         0.0634 
    137 H137       31.9967   27.3408    2.8538 H         1 UNK         0.0634 
@<TRIPOS>BOND
     1    1    2 1    
     2    1   72 1    
     3    1   73 1    
     4    1   74 1    
     5    2    3 2    
     6    2    4 am   BACKBONE|DICT|INTERRES
     7    4    5 1    
     8    4   75 1    
     9    5    6 1    
    10    5   35 1    
    11    5   76 1    
    12    6    7 1    
    13    6   77 1    
    14    6   78 1    
    15    7    8 1    
    16    8    9 1    
    17    8   79 1    
    18    8   80 1    
    19    9   10 ar   
    20    9   14 ar   
    21   10   11 ar   
    22   10   81 1    
    23   11   12 ar   
    24   11   71 1    
    25   12   13 ar   
    26   12   82 1    
    27   13   14 ar   
    28   13   15 1    
    29   14   83 1    
    30   15   16 1    
    31   15   84 1    
    32   15   85 1    
    33   16   17 1    
    34   17   18 1    
    35   17   86 1    
    36   17   87 1    
    37   18   19 1    
    38   18   37 1    
    39   18   88 1    
    40   19   20 am   BACKBONE|DICT|INTERRES
    41   19   89 1    
    42   20   21 2    
    43   20   22 1    
    44   22   23 1    
    45   22   24 1    
    46   22   90 1    
    47   23   91 1    
    48   23   92 1    
    49   23   93 1    
    50   24   25 am   BACKBONE|DICT|INTERRES
    51   24   94 1    
    52   25   26 2    
    53   25   27 1    
    54   27   28 1    
    55   27   29 1    
    56   27   95 1    
    57   28   96 1    
    58   28   97 1    
    59   28   98 1    
    60   29   30 am   BACKBONE|DICT|INTERRES
    61   29   99 1    
    62   30   31 2    
    63   30   32 1    
    64   32   33 1    
    65   32   34 1    
    66   32  100 1    
    67   33  101 1    
    68   33  102 1    
    69   33  103 1    
    70   34   35 am   BACKBONE|DICT|INTERRES
    71   34  104 1    
    72   35   36 2    
    73   37   38 2    
    74   37   39 am   BACKBONE|DICT|INTERRES
    75   39   40 1    
    76   39  105 1    
    77   40   41 1    
    78   40   42 1    
    79   40  106 1    
    80   41  107 1    
    81   41  108 1    
    82   41  109 1    
    83   42   43 2    
    84   42   44 am   BACKBONE|DICT|INTERRES
    85   44   45 1    
    86   44  110 1    
    87   45   46 1    
    88   45   47 1    
    89   45  111 1    
    90   46  112 1    
    91   46  113 1    
    92   46  114 1    
    93   47   48 2    
    94   47   49 am   BACKBONE|DICT|INTERRES
    95   49   50 1    
    96   49  115 1    
    97   50   51 1    
    98   50   52 1    
    99   50  116 1    
   100   51  117 1    
   101   51  118 1    
   102   51  119 1    
   103   52   53 2    
   104   52   54 am   BACKBONE|DICT|INTERRES
   105   54   55 1    
   106   54  120 1    
   107   55   56 1    
   108   55   57 1    
   109   55  121 1    
   110   56  122 1    
   111   56  123 1    
   112   56  124 1    
   113   57   58 2    
   114   57   59 am   BACKBONE|DICT|INTERRES
   115   59   60 1    
   116   59  125 1    
   117   60   61 1    
   118   60   62 1    
   119   60  126 1    
   120   61  127 1    
   121   61  128 1    
   122   61  129 1    
   123   62   63 2    
   124   62   64 am   BACKBONE|DICT|INTERRES
   125   64   65 1    
   126   64  130 1    
   127   65   66 1    
   128   65   69 1    
   129   65  131 1    
   130   66   67 am   BACKBONE|DICT|INTERRES
   131   66   68 2    
   132   67  132 1    
   133   67  133 1    
   134   69   70 1    
   135   69  134 1    
   136   69  135 1    
   137   70   71 1    
   138   71  136 1    
   139   71  137 1    
@<TRIPOS>SUBSTRUCTURE
     1 UNK         1 GROUP             0       ****    0 ROOT    
