@<TRIPOS>MOLECULE
3R136
137   139    1
SMALL
USER_CHARGES


@<TRIPOS>ATOM
      1 CA         26.0416   18.6083   -1.1217 C.3       0 UNK        -0.1979 
      2 C          27.3777   19.3214   -1.2711 C.2       0 UNK         0.4864 
      3 O          28.1793   18.9447   -2.1278 O.2       0 UNK        -0.5359 
      4 N          27.6261   20.3421   -0.4400 N.am      1 UNK        -0.4318 
      5 CA         28.8252   21.1838   -0.4886 C.3       1 UNK         0.0824 
      6 C6         29.0127   21.9630    0.8376 C.3       12 UNK        -0.0944 
      7 S7         30.7323   22.5309    1.0816 S.3       12 UNK        -0.2672 
      8 C8         31.0622   22.0231    2.7991 C.3       12 UNK         0.0333 
      9 C9         30.4806   23.0077    3.8051 C.ar      12 UNK        -0.0807 
     10 C10        31.2850   24.0151    4.3458 C.ar      12 UNK        -0.0894 
     11 C11        30.7711   24.9049    5.2944 C.ar      12 UNK        -0.0804 
     12 C12        29.4379   24.7875    5.6981 C.ar      12 UNK        -0.0824 
     13 C13        28.6160   23.8025    5.1433 C.ar      12 UNK        -0.0762 
     14 C14        29.1462   22.9073    4.2094 C.ar      12 UNK        -0.0782 
     15 C15        27.1518   23.7028    5.5388 C.3       12 UNK         0.0230 
     16 S16        26.1015   24.6720    4.4093 S.3       12 UNK        -0.2608 
     17 C17        26.1686   26.3395    5.1508 C.3       12 UNK        -0.0989 
     18 CA         27.1202   27.3210    4.4179 C.3       5 UNK         0.0716 
     19 N          26.8132   27.4303    2.9862 N.am      5 UNK        -0.4135 
     20 C          27.4148   28.2372    2.1010 C.2       4 UNK         0.5031 
     21 O          28.2644   29.0847    2.3867 O.2       4 UNK        -0.5229 
     22 CA         27.0295   28.0545    0.6263 C.3       4 UNK         0.0329 
     23 CB         26.4104   29.3358    0.0451 C.3       4 UNK        -0.2001 
     24 N          28.2361   27.7178   -0.1255 N.am      4 UNK        -0.4303 
     25 C          28.7651   26.4904   -0.1717 C.2       3 UNK         0.5044 
     26 O          28.2108   25.4857    0.2790 O.2       3 UNK        -0.5152 
     27 CA         30.1729   26.3820   -0.7721 C.3       3 UNK         0.0319 
     28 CB         31.2279   26.4621    0.3433 C.3       3 UNK        -0.2001 
     29 N          30.3264   25.1140   -1.4803 N.am      3 UNK        -0.4354 
     30 C          29.9844   24.9097   -2.7598 C.2       2 UNK         0.4964 
     31 O          29.5816   25.7980   -3.5120 O.2       2 UNK        -0.5047 
     32 CA         30.1160   23.4730   -3.2986 C.3       2 UNK         0.0288 
     33 CB         31.4796   23.2757   -3.9811 C.3       2 UNK        -0.2113 
     34 N          29.9483   22.4613   -2.2524 N.am      2 UNK        -0.4145 
     35 C          28.7715   22.1422   -1.6968 C.2       1 UNK         0.5006 
     36 O          27.6879   22.5954   -2.0773 O.2       1 UNK        -0.5103 
     37 C          27.1019   28.6929    5.1208 C.2       5 UNK         0.5055 
     38 O          26.0311   29.2911    5.2416 O.2       5 UNK        -0.5220 
     39 N          28.2854   29.1783    5.5227 N.am      6 UNK        -0.4450 
     40 CA         28.5857   30.4661    6.1699 C.3       6 UNK         0.0367 
     41 CB         27.8704   30.5852    7.5301 C.3       6 UNK        -0.1929 
     42 C          28.3431   31.7221    5.3056 C.2       6 UNK         0.5070 
     43 O          28.9643   32.7517    5.5710 O.2       6 UNK        -0.5237 
     44 N          27.4646   31.6369    4.2986 N.am      7 UNK        -0.4739 
     45 CA         27.1812   32.6934    3.3264 C.3       7 UNK         0.0276 
     46 CB         25.9024   32.3454    2.5508 C.3       7 UNK        -0.1927 
     47 C          28.3590   32.9427    2.3707 C.2       7 UNK         0.5013 
     48 O          28.6186   34.0968    2.0265 O.2       7 UNK        -0.5193 
     49 N          29.0734   31.8736    1.9898 N.am      8 UNK        -0.4253 
     50 CA         30.3817   31.9607    1.3455 C.3       8 UNK         0.0242 
     51 CB         30.6882   30.6391    0.6205 C.3       8 UNK        -0.2000 
     52 C          31.4262   32.2533    2.4308 C.2       8 UNK         0.4948 
     53 O          31.5913   31.4310    3.3321 O.2       8 UNK        -0.5275 
     54 N          32.0994   33.4086    2.3376 N.am      9 UNK        -0.4246 
     55 CA         33.0162   33.9301    3.3610 C.3       9 UNK         0.0261 
     56 CB         33.5006   35.3302    2.9497 C.3       9 UNK        -0.1959 
     57 C          34.2141   33.0170    3.6795 C.2       9 UNK         0.5033 
     58 O          34.6256   32.9440    4.8384 O.2       9 UNK        -0.5390 
     59 N          34.7402   32.3315    2.6558 N.am      10 UNK        -0.4215 
     60 CA         35.8036   31.3324    2.7953 C.3       10 UNK         0.0240 
     61 CB         36.5244   31.1741    1.4460 C.3       10 UNK        -0.1982 
     62 C          35.2854   29.9676    3.2870 C.2       10 UNK         0.4970 
     63 O          36.0672   29.2027    3.8525 O.2       10 UNK        -0.4916 
     64 N          33.9969   29.6851    3.0459 N.am      11 UNK        -0.4279 
     65 CA         33.2934   28.4309    3.3546 C.3       11 UNK         0.1003 
     66 C          33.9341   27.1529    2.7274 C.2       11 UNK         0.5709 
     67 N          34.5395   27.2526    1.5491 N.am      11 UNK        -0.7358 
     68 O          33.8866   26.0652    3.2939 O.2       11 UNK        -0.4999 
     69 C69        32.9448   28.3153    4.8676 C.3       12 UNK        -0.0954 
     70 S70        31.2817   27.6072    5.1270 S.3       12 UNK        -0.2268 
     71 C71        31.6562   25.9937    5.8796 C.3       12 UNK         0.0203 
     72 H72        25.4721   18.6817   -2.0478 H         1 UNK         0.0888 
     73 H73        26.2018   17.5531   -0.9022 H         1 UNK         0.0888 
     74 H74        25.4395   19.0338   -0.3190 H         1 UNK         0.0888 
     75 H75        26.9144   20.6299    0.2160 H         1 UNK         0.3017 
     76 H76        29.6789   20.5142   -0.6184 H         1 UNK         0.0873 
     77 H77        28.7483   21.3103    1.6695 H         1 UNK         0.0745 
     78 H78        28.3370   22.8184    0.9045 H         1 UNK         0.0745 
     79 H79        30.6745   21.0192    2.9781 H         1 UNK         0.0705 
     80 H80        32.1426   21.9531    2.9345 H         1 UNK         0.0705 
     81 H81        32.3153   24.1041    4.0296 H         1 UNK         0.1334 
     82 H82        29.0365   25.4775    6.4275 H         1 UNK         0.1417 
     83 H83        28.5124   22.1379    3.7925 H         1 UNK         0.1562 
     84 H84        27.0044   24.0222    6.5714 H         1 UNK         0.0748 
     85 H85        26.8324   22.6602    5.5009 H         1 UNK         0.0748 
     86 H86        26.4463   26.2553    6.2031 H         1 UNK         0.0940 
     87 H87        25.1491   26.7311    5.1485 H         1 UNK         0.0940 
     88 H88        28.1329   26.9201    4.4791 H         1 UNK         0.0703 
     89 H89        26.1404   26.7596    2.6448 H         1 UNK         0.3081 
     90 H90        26.3006   27.2465    0.5300 H         1 UNK         0.0719 
     91 H91        27.0809   30.1916    0.1372 H         1 UNK         0.0809 
     92 H92        26.1685   29.2140   -1.0108 H         1 UNK         0.0809 
     93 H93        25.4820   29.5846    0.5601 H         1 UNK         0.0809 
     94 H94        28.7733   28.4951   -0.4792 H         1 UNK         0.2990 
     95 H95        30.3364   27.2100   -1.4656 H         1 UNK         0.0690 
     96 H96        32.2376   26.3879   -0.0605 H         1 UNK         0.0788 
     97 H97        31.1021   25.6669    1.0802 H         1 UNK         0.0788 
     98 H98        31.1599   27.4098    0.8776 H         1 UNK         0.0788 
     99 H99        30.5804   24.3173   -0.9135 H         1 UNK         0.2993 
    100 H100       29.3340   23.3297   -4.0479 H         1 UNK         0.0949 
    101 H101       31.6220   24.0011   -4.7835 H         1 UNK         0.0767 
    102 H102       32.3056   23.3995   -3.2794 H         1 UNK         0.0767 
    103 H103       31.5610   22.2834   -4.4255 H         1 UNK         0.0767 
    104 H104       30.7913   22.0467   -1.8803 H         1 UNK         0.3013 
    105 H105       29.1082   28.6327    5.2955 H         1 UNK         0.3121 
    106 H106       29.6594   30.4437    6.3653 H         1 UNK         0.0774 
    107 H107       28.1873   31.4860    8.0573 H         1 UNK         0.0815 
    108 H108       26.7874   30.6425    7.4180 H         1 UNK         0.0815 
    109 H109       28.0983   29.7363    8.1745 H         1 UNK         0.0815 
    110 H110       26.9587   30.7645    4.1986 H         1 UNK         0.2987 
    111 H111       27.0049   33.6202    3.8769 H         1 UNK         0.0949 
    112 H112       25.9957   31.3920    2.0335 H         1 UNK         0.0806 
    113 H113       25.0415   32.2809    3.2165 H         1 UNK         0.0806 
    114 H114       25.6778   33.1063    1.8020 H         1 UNK         0.0806 
    115 H115       28.8003   30.9542    2.3293 H         1 UNK         0.3010 
    116 H116       30.3750   32.7663    0.6080 H         1 UNK         0.0829 
    117 H117       29.9522   30.4393   -0.1577 H         1 UNK         0.0813 
    118 H118       31.6678   30.6716    0.1422 H         1 UNK         0.0813 
    119 H119       30.6860   29.7929    1.3084 H         1 UNK         0.0813 
    120 H120       31.8900   34.0272    1.5666 H         1 UNK         0.3038 
    121 H121       32.4389   34.0302    4.2829 H         1 UNK         0.0769 
    122 H122       32.6660   36.0227    2.8378 H         1 UNK         0.0811 
    123 H123       34.0493   35.3087    2.0073 H         1 UNK         0.0811 
    124 H124       34.1667   35.7502    3.7048 H         1 UNK         0.0811 
    125 H125       34.3559   32.4748    1.7330 H         1 UNK         0.3204 
    126 H126       36.5308   31.6911    3.5273 H         1 UNK         0.0748 
    127 H127       36.9609   32.1174    1.1170 H         1 UNK         0.0771 
    128 H128       37.3388   30.4519    1.5211 H         1 UNK         0.0771 
    129 H129       35.8501   30.8244    0.6632 H         1 UNK         0.0771 
    130 H130       33.4073   30.4151    2.6712 H         1 UNK         0.2980 
    131 H131       32.3519   28.5400    2.8157 H         1 UNK         0.0545 
    132 H132       34.9582   26.4309    1.1442 H         1 UNK         0.3459 
    133 H133       34.5959   28.1366    1.0711 H         1 UNK         0.3459 
    134 H134       33.7089   27.7648    5.4183 H         1 UNK         0.0616 
    135 H135       32.9189   29.3072    5.3220 H         1 UNK         0.0616 
    136 H136       31.5047   26.0590    6.9579 H         1 UNK         0.0634 
    137 H137       32.7059   25.7364    5.7339 H         1 UNK         0.0634 
@<TRIPOS>BOND
     1    1    2 1    
     2    1   72 1    
     3    1   73 1    
     4    1   74 1    
     5    2    3 2    
     6    2    4 am   BACKBONE|DICT|INTERRES
     7    4    5 1    
     8    4   75 1    
     9    5    6 1    
    10    5   35 1    
    11    5   76 1    
    12    6    7 1    
    13    6   77 1    
    14    6   78 1    
    15    7    8 1    
    16    8    9 1    
    17    8   79 1    
    18    8   80 1    
    19    9   10 ar   
    20    9   14 ar   
    21   10   11 ar   
    22   10   81 1    
    23   11   12 ar   
    24   11   71 1    
    25   12   13 ar   
    26   12   82 1    
    27   13   14 ar   
    28   13   15 1    
    29   14   83 1    
    30   15   16 1    
    31   15   84 1    
    32   15   85 1    
    33   16   17 1    
    34   17   18 1    
    35   17   86 1    
    36   17   87 1    
    37   18   19 1    
    38   18   37 1    
    39   18   88 1    
    40   19   20 am   BACKBONE|DICT|INTERRES
    41   19   89 1    
    42   20   21 2    
    43   20   22 1    
    44   22   23 1    
    45   22   24 1    
    46   22   90 1    
    47   23   91 1    
    48   23   92 1    
    49   23   93 1    
    50   24   25 am   BACKBONE|DICT|INTERRES
    51   24   94 1    
    52   25   26 2    
    53   25   27 1    
    54   27   28 1    
    55   27   29 1    
    56   27   95 1    
    57   28   96 1    
    58   28   97 1    
    59   28   98 1    
    60   29   30 am   BACKBONE|DICT|INTERRES
    61   29   99 1    
    62   30   31 2    
    63   30   32 1    
    64   32   33 1    
    65   32   34 1    
    66   32  100 1    
    67   33  101 1    
    68   33  102 1    
    69   33  103 1    
    70   34   35 am   BACKBONE|DICT|INTERRES
    71   34  104 1    
    72   35   36 2    
    73   37   38 2    
    74   37   39 am   BACKBONE|DICT|INTERRES
    75   39   40 1    
    76   39  105 1    
    77   40   41 1    
    78   40   42 1    
    79   40  106 1    
    80   41  107 1    
    81   41  108 1    
    82   41  109 1    
    83   42   43 2    
    84   42   44 am   BACKBONE|DICT|INTERRES
    85   44   45 1    
    86   44  110 1    
    87   45   46 1    
    88   45   47 1    
    89   45  111 1    
    90   46  112 1    
    91   46  113 1    
    92   46  114 1    
    93   47   48 2    
    94   47   49 am   BACKBONE|DICT|INTERRES
    95   49   50 1    
    96   49  115 1    
    97   50   51 1    
    98   50   52 1    
    99   50  116 1    
   100   51  117 1    
   101   51  118 1    
   102   51  119 1    
   103   52   53 2    
   104   52   54 am   BACKBONE|DICT|INTERRES
   105   54   55 1    
   106   54  120 1    
   107   55   56 1    
   108   55   57 1    
   109   55  121 1    
   110   56  122 1    
   111   56  123 1    
   112   56  124 1    
   113   57   58 2    
   114   57   59 am   BACKBONE|DICT|INTERRES
   115   59   60 1    
   116   59  125 1    
   117   60   61 1    
   118   60   62 1    
   119   60  126 1    
   120   61  127 1    
   121   61  128 1    
   122   61  129 1    
   123   62   63 2    
   124   62   64 am   BACKBONE|DICT|INTERRES
   125   64   65 1    
   126   64  130 1    
   127   65   66 1    
   128   65   69 1    
   129   65  131 1    
   130   66   67 am   BACKBONE|DICT|INTERRES
   131   66   68 2    
   132   67  132 1    
   133   67  133 1    
   134   69   70 1    
   135   69  134 1    
   136   69  135 1    
   137   70   71 1    
   138   71  136 1    
   139   71  137 1    
@<TRIPOS>SUBSTRUCTURE
     1 UNK         1 GROUP             0       ****    0 ROOT    
