@<TRIPOS>MOLECULE
3R136
137   139    1
SMALL
USER_CHARGES


@<TRIPOS>ATOM
      1 CA         32.1815   21.5087    4.7769 C.3       0 UNK        -0.1979 
      2 C          30.7848   21.5121    4.1730 C.2       0 UNK         0.4864 
      3 O          29.9418   20.7104    4.5788 O.2       0 UNK        -0.5359 
      4 N          30.5369   22.4011    3.2036 N.am      1 UNK        -0.4318 
      5 CA         29.2322   22.5972    2.5670 C.3       1 UNK         0.0824 
      6 C6         29.3807   23.2877    1.1869 C.3       12 UNK        -0.0944 
      7 S7         29.6014   22.0913   -0.1760 S.3       12 UNK        -0.2672 
      8 C8         31.3682   21.6358   -0.0891 C.3       12 UNK         0.0333 
      9 C9         32.2906   22.8453   -0.1280 C.ar      12 UNK        -0.0807 
     10 C10        33.1169   23.1277    0.9620 C.ar      12 UNK        -0.0894 
     11 C11        33.8850   24.2939    0.9842 C.ar      12 UNK        -0.0804 
     12 C12        33.8754   25.1484   -0.1236 C.ar      12 UNK        -0.0824 
     13 C13        33.0609   24.8701   -1.2265 C.ar      12 UNK        -0.0762 
     14 C14        32.2810   23.7091   -1.2270 C.ar      12 UNK        -0.0782 
     15 C15        32.9602   25.8517   -2.3905 C.3       12 UNK         0.0230 
     16 S16        32.4892   27.5425   -1.8742 S.3       12 UNK        -0.2608 
     17 C17        31.0379   27.2667   -0.7993 C.3       12 UNK        -0.0989 
     18 CA         29.7231   27.8908   -1.3310 C.3       5 UNK         0.0716 
     19 N          28.5639   27.2125   -0.7520 N.am      5 UNK        -0.4135 
     20 C          27.3724   27.0875   -1.3495 C.2       4 UNK         0.5031 
     21 O          27.1394   27.4710   -2.4971 O.2       4 UNK        -0.5229 
     22 CA         26.2473   26.4082   -0.5505 C.3       4 UNK         0.0329 
     23 CB         26.1232   24.9286   -0.9508 C.3       4 UNK        -0.2001 
     24 N          26.4390   26.5028    0.8984 N.am      4 UNK        -0.4303 
     25 C          26.0518   27.5403    1.6538 C.2       3 UNK         0.5044 
     26 O          25.4903   28.5380    1.1979 O.2       3 UNK        -0.5152 
     27 CA         26.3319   27.4466    3.1711 C.3       3 UNK         0.0319 
     28 CB         25.3086   28.2376    4.0141 C.3       3 UNK        -0.2001 
     29 N          26.4711   26.0695    3.6720 N.am      3 UNK        -0.4354 
     30 C          25.5354   25.1081    3.6782 C.2       2 UNK         0.4964 
     31 O          24.3978   25.2524    3.2276 O.2       2 UNK        -0.5047 
     32 CA         25.9626   23.7469    4.2604 C.3       2 UNK         0.0288 
     33 CB         24.7817   22.7677    4.4064 C.3       2 UNK        -0.2113 
     34 N          27.0013   23.1117    3.4452 N.am      2 UNK        -0.4145 
     35 C          28.3074   23.4029    3.5020 C.2       1 UNK         0.5006 
     36 O          28.7733   24.2830    4.2298 O.2       1 UNK        -0.5103 
     37 C          29.6407   29.3985   -1.0204 C.2       5 UNK         0.5055 
     38 O          28.9819   29.8017   -0.0577 O.2       5 UNK        -0.5220 
     39 N          30.3645   30.2021   -1.8088 N.am      6 UNK        -0.4450 
     40 CA         30.4932   31.6549   -1.6457 C.3       6 UNK         0.0367 
     41 CB         30.9997   32.2555   -2.9684 C.3       6 UNK        -0.1929 
     42 C          31.4007   32.0799   -0.4713 C.2       6 UNK         0.5070 
     43 O          31.5587   33.2798   -0.2394 O.2       6 UNK        -0.5237 
     44 N          31.9978   31.1117    0.2373 N.am      7 UNK        -0.4739 
     45 CA         32.8999   31.2858    1.3773 C.3       7 UNK         0.0276 
     46 CB         33.6413   29.9589    1.6147 C.3       7 UNK        -0.1927 
     47 C          32.1842   31.7890    2.6486 C.2       7 UNK         0.5013 
     48 O          32.1193   31.0664    3.6476 O.2       7 UNK        -0.5193 
     49 N          31.6736   33.0258    2.5784 N.am      8 UNK        -0.4253 
     50 CA         31.0971   33.8353    3.6570 C.3       8 UNK         0.0242 
     51 CB         32.2413   34.4524    4.4951 C.3       8 UNK        -0.2000 
     52 C          30.0440   33.0742    4.4890 C.2       8 UNK         0.4948 
     53 O          29.0794   32.5626    3.9187 O.2       8 UNK        -0.5275 
     54 N          30.2539   33.0084    5.8092 N.am      9 UNK        -0.4246 
     55 CA         29.4320   32.2708    6.7692 C.3       9 UNK         0.0261 
     56 CB         29.2221   33.1548    8.0129 C.3       9 UNK        -0.1959 
     57 C          30.0512   30.9102    7.1486 C.2       9 UNK         0.5033 
     58 O          29.5721   30.2895    8.0996 O.2       9 UNK        -0.5390 
     59 N          31.1012   30.4731    6.4355 N.am      10 UNK        -0.4215 
     60 CA         31.7440   29.1713    6.6104 C.3       10 UNK         0.0240 
     61 CB         33.2645   29.3134    6.3840 C.3       10 UNK        -0.1982 
     62 C          31.0545   28.1591    5.6809 C.2       10 UNK         0.4970 
     63 O          29.9050   27.7984    5.9379 O.2       10 UNK        -0.4916 
     64 N          31.7447   27.7253    4.6193 N.am      11 UNK        -0.4279 
     65 CA         31.1847   26.8401    3.5885 C.3       11 UNK         0.1003 
     66 C          30.1089   27.5051    2.6833 C.2       11 UNK         0.5709 
     67 N          30.0272   28.8285    2.6074 N.am      11 UNK        -0.7358 
     68 O          29.3613   26.8026    2.0052 O.2       11 UNK        -0.4999 
     69 C69        32.2833   26.2074    2.7026 C.3       12 UNK        -0.0954 
     70 S70        33.4593   25.1390    3.5969 S.3       12 UNK        -0.2268 
     71 C71        34.6221   24.6916    2.2560 C.3       12 UNK         0.0203 
     72 H72        32.6400   20.5275    4.6569 H         1 UNK         0.0888 
     73 H73        32.1291   21.7331    5.8419 H         1 UNK         0.0888 
     74 H74        32.8328   22.2456    4.3088 H         1 UNK         0.0888 
     75 H75        31.2459   23.0749    2.9551 H         1 UNK         0.3017 
     76 H76        28.7709   21.6170    2.4242 H         1 UNK         0.0873 
     77 H77        30.1851   24.0240    1.1859 H         1 UNK         0.0745 
     78 H78        28.4834   23.8547    0.9374 H         1 UNK         0.0745 
     79 H79        31.5343   21.0459    0.8135 H         1 UNK         0.0705 
     80 H80        31.6048   20.9812   -0.9289 H         1 UNK         0.0705 
     81 H81        33.1206   22.4730    1.8218 H         1 UNK         0.1334 
     82 H82        34.4497   26.0647   -0.1035 H         1 UNK         0.1417 
     83 H83        31.6281   23.4957   -2.0627 H         1 UNK         0.1562 
     84 H84        32.2345   25.5041   -3.1274 H         1 UNK         0.0748 
     85 H85        33.9218   25.8941   -2.9032 H         1 UNK         0.0748 
     86 H86        31.2900   27.6488    0.1884 H         1 UNK         0.0940 
     87 H87        30.8928   26.1951   -0.6629 H         1 UNK         0.0940 
     88 H88        29.6912   27.7595   -2.4150 H         1 UNK         0.0703 
     89 H89        28.6544   26.9535    0.2263 H         1 UNK         0.3081 
     90 H90        25.3105   26.9043   -0.8141 H         1 UNK         0.0719 
     91 H91        27.0534   24.3827   -0.7951 H         1 UNK         0.0809 
     92 H92        25.3368   24.4270   -0.3863 H         1 UNK         0.0809 
     93 H93        25.8708   24.8354   -2.0080 H         1 UNK         0.0809 
     94 H94        26.9157   25.7406    1.3559 H         1 UNK         0.2990 
     95 H95        27.2992   27.9228    3.3268 H         1 UNK         0.0690 
     96 H96        25.5348   28.1697    5.0782 H         1 UNK         0.0788 
     97 H97        24.2912   27.8763    3.8619 H         1 UNK         0.0788 
     98 H98        25.3196   29.2959    3.7506 H         1 UNK         0.0788 
     99 H99        27.3939   25.8167    4.0138 H         1 UNK         0.2993 
    100 H100       26.3596   23.9343    5.2611 H         1 UNK         0.0949 
    101 H101       23.9932   23.1966    5.0265 H         1 UNK         0.0767 
    102 H102       24.3388   22.5185    3.4411 H         1 UNK         0.0767 
    103 H103       25.0946   21.8379    4.8819 H         1 UNK         0.0767 
    104 H104       26.6871   22.4015    2.7990 H         1 UNK         0.3013 
    105 H105       30.9126   29.7831   -2.5480 H         1 UNK         0.3121 
    106 H106       29.5015   32.0653   -1.4435 H         1 UNK         0.0774 
    107 H107       30.3320   32.0151   -3.7960 H         1 UNK         0.0815 
    108 H108       31.9960   31.8908   -3.2215 H         1 UNK         0.0815 
    109 H109       31.0569   33.3434   -2.9096 H         1 UNK         0.0815 
    110 H110       31.7918   30.1595   -0.0232 H         1 UNK         0.2987 
    111 H111       33.6448   32.0387    1.1106 H         1 UNK         0.0949 
    112 H112       32.9444   29.1640    1.8714 H         1 UNK         0.0806 
    113 H113       34.1987   29.6467    0.7312 H         1 UNK         0.0806 
    114 H114       34.3549   30.0478    2.4350 H         1 UNK         0.0806 
    115 H115       31.6862   33.4588    1.6580 H         1 UNK         0.3010 
    116 H116       30.5615   34.6539    3.1739 H         1 UNK         0.0829 
    117 H117       32.9164   35.0298    3.8631 H         1 UNK         0.0813 
    118 H118       31.8598   35.1398    5.2515 H         1 UNK         0.0813 
    119 H119       32.8399   33.6908    4.9972 H         1 UNK         0.0813 
    120 H120       31.0823   33.4524    6.1799 H         1 UNK         0.3038 
    121 H121       28.4518   32.0617    6.3357 H         1 UNK         0.0769 
    122 H122       30.1619   33.3575    8.5279 H         1 UNK         0.0811 
    123 H123       28.5544   32.6746    8.7296 H         1 UNK         0.0811 
    124 H124       28.7710   34.1112    7.7477 H         1 UNK         0.0811 
    125 H125       31.3887   30.9978    5.6155 H         1 UNK         0.3204 
    126 H126       31.5980   28.8168    7.6330 H         1 UNK         0.0748 
    127 H127       33.7022   29.9915    7.1168 H         1 UNK         0.0771 
    128 H128       33.7708   28.3538    6.4982 H         1 UNK         0.0771 
    129 H129       33.5079   29.7039    5.3958 H         1 UNK         0.0771 
    130 H130       32.6811   28.0669    4.4654 H         1 UNK         0.2980 
    131 H131       30.6797   26.0251    4.1072 H         1 UNK         0.0545 
    132 H132       29.3717   29.2447    1.9587 H         1 UNK         0.3459 
    133 H133       30.6427   29.4192    3.1481 H         1 UNK         0.3459 
    134 H134       31.8101   25.5964    1.9334 H         1 UNK         0.0616 
    135 H135       32.8515   26.9719    2.1748 H         1 UNK         0.0616 
    136 H136       35.2857   25.5371    2.0685 H         1 UNK         0.0634 
    137 H137       35.2546   23.8675    2.5887 H         1 UNK         0.0634 
@<TRIPOS>BOND
     1    1    2 1    
     2    1   72 1    
     3    1   73 1    
     4    1   74 1    
     5    2    3 2    
     6    2    4 am   BACKBONE|DICT|INTERRES
     7    4    5 1    
     8    4   75 1    
     9    5    6 1    
    10    5   35 1    
    11    5   76 1    
    12    6    7 1    
    13    6   77 1    
    14    6   78 1    
    15    7    8 1    
    16    8    9 1    
    17    8   79 1    
    18    8   80 1    
    19    9   10 ar   
    20    9   14 ar   
    21   10   11 ar   
    22   10   81 1    
    23   11   12 ar   
    24   11   71 1    
    25   12   13 ar   
    26   12   82 1    
    27   13   14 ar   
    28   13   15 1    
    29   14   83 1    
    30   15   16 1    
    31   15   84 1    
    32   15   85 1    
    33   16   17 1    
    34   17   18 1    
    35   17   86 1    
    36   17   87 1    
    37   18   19 1    
    38   18   37 1    
    39   18   88 1    
    40   19   20 am   BACKBONE|DICT|INTERRES
    41   19   89 1    
    42   20   21 2    
    43   20   22 1    
    44   22   23 1    
    45   22   24 1    
    46   22   90 1    
    47   23   91 1    
    48   23   92 1    
    49   23   93 1    
    50   24   25 am   BACKBONE|DICT|INTERRES
    51   24   94 1    
    52   25   26 2    
    53   25   27 1    
    54   27   28 1    
    55   27   29 1    
    56   27   95 1    
    57   28   96 1    
    58   28   97 1    
    59   28   98 1    
    60   29   30 am   BACKBONE|DICT|INTERRES
    61   29   99 1    
    62   30   31 2    
    63   30   32 1    
    64   32   33 1    
    65   32   34 1    
    66   32  100 1    
    67   33  101 1    
    68   33  102 1    
    69   33  103 1    
    70   34   35 am   BACKBONE|DICT|INTERRES
    71   34  104 1    
    72   35   36 2    
    73   37   38 2    
    74   37   39 am   BACKBONE|DICT|INTERRES
    75   39   40 1    
    76   39  105 1    
    77   40   41 1    
    78   40   42 1    
    79   40  106 1    
    80   41  107 1    
    81   41  108 1    
    82   41  109 1    
    83   42   43 2    
    84   42   44 am   BACKBONE|DICT|INTERRES
    85   44   45 1    
    86   44  110 1    
    87   45   46 1    
    88   45   47 1    
    89   45  111 1    
    90   46  112 1    
    91   46  113 1    
    92   46  114 1    
    93   47   48 2    
    94   47   49 am   BACKBONE|DICT|INTERRES
    95   49   50 1    
    96   49  115 1    
    97   50   51 1    
    98   50   52 1    
    99   50  116 1    
   100   51  117 1    
   101   51  118 1    
   102   51  119 1    
   103   52   53 2    
   104   52   54 am   BACKBONE|DICT|INTERRES
   105   54   55 1    
   106   54  120 1    
   107   55   56 1    
   108   55   57 1    
   109   55  121 1    
   110   56  122 1    
   111   56  123 1    
   112   56  124 1    
   113   57   58 2    
   114   57   59 am   BACKBONE|DICT|INTERRES
   115   59   60 1    
   116   59  125 1    
   117   60   61 1    
   118   60   62 1    
   119   60  126 1    
   120   61  127 1    
   121   61  128 1    
   122   61  129 1    
   123   62   63 2    
   124   62   64 am   BACKBONE|DICT|INTERRES
   125   64   65 1    
   126   64  130 1    
   127   65   66 1    
   128   65   69 1    
   129   65  131 1    
   130   66   67 am   BACKBONE|DICT|INTERRES
   131   66   68 2    
   132   67  132 1    
   133   67  133 1    
   134   69   70 1    
   135   69  134 1    
   136   69  135 1    
   137   70   71 1    
   138   71  136 1    
   139   71  137 1    
@<TRIPOS>SUBSTRUCTURE
     1 UNK         1 GROUP             0       ****    0 ROOT    
