@<TRIPOS>MOLECULE
3R136
137   139    1
SMALL
USER_CHARGES


@<TRIPOS>ATOM
      1 CA         30.0280   19.1279    4.6873 C.3       0 UNK        -0.1979 
      2 C          29.4438   18.9456    3.2940 C.2       0 UNK         0.4864 
      3 O          28.7732   17.9439    3.0375 O.2       0 UNK        -0.5359 
      4 N          29.7005   19.9007    2.3920 N.am      1 UNK        -0.4318 
      5 CA         29.1548   19.9411    1.0328 C.3       1 UNK         0.0824 
      6 C6         29.9917   20.8729    0.1156 C.3       12 UNK        -0.0944 
      7 S7         30.0724   22.6046    0.6892 S.3       12 UNK        -0.2672 
      8 C8         31.0880   23.3509   -0.6183 C.3       12 UNK         0.0333 
      9 C9         31.2453   24.8476   -0.3966 C.ar      12 UNK        -0.0807 
     10 C10        32.0426   25.3142    0.6512 C.ar      12 UNK        -0.0894 
     11 C11        32.2152   26.6849    0.8628 C.ar      12 UNK        -0.0804 
     12 C12        31.5878   27.5940    0.0044 C.ar      12 UNK        -0.0824 
     13 C13        30.7975   27.1410   -1.0589 C.ar      12 UNK        -0.0762 
     14 C14        30.6248   25.7662   -1.2487 C.ar      12 UNK        -0.0782 
     15 C15        30.1843   28.1250   -2.0487 C.3       12 UNK         0.0230 
     16 S16        28.4668   28.5696   -1.6324 S.3       12 UNK        -0.2608 
     17 C17        28.7171   29.7578   -0.2678 C.3       12 UNK        -0.0989 
     18 CA         28.1082   29.2869    1.0784 C.3       5 UNK         0.0716 
     19 N          28.4694   27.9025    1.3870 N.am      5 UNK        -0.4135 
     20 C          28.0459   27.1808    2.4308 C.2       4 UNK         0.5031 
     21 O          27.3645   27.6259    3.3562 O.2       4 UNK        -0.5229 
     22 CA         28.4119   25.6853    2.3813 C.3       4 UNK         0.0329 
     23 CB         28.0350   24.9261    3.6697 C.3       4 UNK        -0.2001 
     24 N          27.8351   25.0176    1.2055 N.am      4 UNK        -0.4303 
     25 C          26.5450   24.9845    0.8309 C.2       3 UNK         0.5044 
     26 O          25.6195   25.5013    1.4566 O.2       3 UNK        -0.5152 
     27 CA         26.2238   24.2116   -0.4519 C.3       3 UNK         0.0319 
     28 CB         27.2435   24.4513   -1.5841 C.3       3 UNK        -0.2001 
     29 N          26.1328   22.7936   -0.1245 N.am      3 UNK        -0.4354 
     30 C          25.4905   21.8612   -0.8362 C.2       2 UNK         0.4964 
     31 O          24.8815   22.1023   -1.8803 O.2       2 UNK        -0.5047 
     32 CA         25.5657   20.4146   -0.2995 C.3       2 UNK         0.0288 
     33 CB         24.9089   19.3922   -1.2471 C.3       2 UNK        -0.2113 
     34 N          26.9503   20.0018   -0.0435 N.am      2 UNK        -0.4145 
     35 C          27.6636   20.3408    1.0386 C.2       1 UNK         0.5006 
     36 O          27.1987   21.0050    1.9708 O.2       1 UNK        -0.5103 
     37 C          28.5037   30.2617    2.2046 C.2       5 UNK         0.5055 
     38 O          29.6957   30.4426    2.4519 O.2       5 UNK        -0.5220 
     39 N          27.5117   30.9182    2.8216 N.am      6 UNK        -0.4450 
     40 CA         27.7014   31.8972    3.9011 C.3       6 UNK         0.0367 
     41 CB         26.3340   32.2374    4.5161 C.3       6 UNK        -0.1929 
     42 C          28.4383   33.1834    3.4759 C.2       6 UNK         0.5070 
     43 O          28.9374   33.9060    4.3383 O.2       6 UNK        -0.5237 
     44 N          28.4895   33.4534    2.1645 N.am      7 UNK        -0.4739 
     45 CA         29.2400   34.5591    1.5664 C.3       7 UNK         0.0276 
     46 CB         28.6576   34.8554    0.1741 C.3       7 UNK        -0.1927 
     47 C          30.7548   34.2902    1.4680 C.2       7 UNK         0.5013 
     48 O          31.5113   35.2411    1.2630 O.2       7 UNK        -0.5193 
     49 N          31.1751   33.0225    1.5849 N.am      8 UNK        -0.4253 
     50 CA         32.5782   32.6088    1.5440 C.3       8 UNK         0.0242 
     51 CB         32.6551   31.1878    0.9613 C.3       8 UNK        -0.2000 
     52 C          33.2110   32.6547    2.9444 C.2       8 UNK         0.4948 
     53 O          32.5068   32.7976    3.9466 O.2       8 UNK        -0.5275 
     54 N          34.5411   32.5081    2.9894 N.am      9 UNK        -0.4246 
     55 CA         35.3072   32.3455    4.2262 C.3       9 UNK         0.0261 
     56 CB         36.8038   32.5196    3.9208 C.3       9 UNK        -0.1959 
     57 C          35.0441   30.9677    4.8579 C.2       9 UNK         0.5033 
     58 O          34.8757   29.9877    4.1269 O.2       9 UNK        -0.5390 
     59 N          35.0291   30.9219    6.1975 N.am      10 UNK        -0.4215 
     60 CA         34.8129   29.7630    7.0808 C.3       10 UNK         0.0240 
     61 CB         35.8972   28.6857    6.8769 C.3       10 UNK        -0.1982 
     62 C          33.4019   29.1448    7.0179 C.2       10 UNK         0.4970 
     63 O          32.8343   28.8480    8.0702 O.2       10 UNK        -0.4916 
     64 N          32.8687   28.9539    5.8082 N.am      11 UNK        -0.4279 
     65 CA         31.5214   28.4381    5.5324 C.3       11 UNK         0.1003 
     66 C          30.3839   29.4135    5.9538 C.2       11 UNK         0.5709 
     67 N          29.1504   28.9293    6.0210 N.am      11 UNK        -0.7358 
     68 O          30.5957   30.5942    6.2228 O.2       11 UNK        -0.4999 
     69 C69        31.3838   27.9965    4.0530 C.3       12 UNK        -0.0954 
     70 S70        32.5420   26.6560    3.6267 S.3       12 UNK        -0.2268 
     71 C71        33.1331   27.1654    1.9809 C.3       12 UNK         0.0203 
     72 H72        29.2285   19.1638    5.4269 H         1 UNK         0.0888 
     73 H73        30.6831   18.2923    4.9324 H         1 UNK         0.0888 
     74 H74        30.6067   20.0479    4.7691 H         1 UNK         0.0888 
     75 H75        30.2233   20.7209    2.6647 H         1 UNK         0.3017 
     76 H76        29.2169   18.9304    0.6231 H         1 UNK         0.0873 
     77 H77        29.6012   20.8596   -0.9038 H         1 UNK         0.0745 
     78 H78        31.0114   20.4908    0.0449 H         1 UNK         0.0745 
     79 H79        32.0712   22.8781   -0.6280 H         1 UNK         0.0705 
     80 H80        30.6352   23.1484   -1.5902 H         1 UNK         0.0705 
     81 H81        32.5343   24.6058    1.3043 H         1 UNK         0.1334 
     82 H82        31.7399   28.6533    0.1452 H         1 UNK         0.1417 
     83 H83        30.0291   25.4145   -2.0799 H         1 UNK         0.1562 
     84 H84        30.1918   27.6851   -3.0473 H         1 UNK         0.0748 
     85 H85        30.7936   29.0274   -2.1210 H         1 UNK         0.0748 
     86 H86        28.2678   30.7062   -0.5683 H         1 UNK         0.0940 
     87 H87        29.7837   29.9619   -0.1628 H         1 UNK         0.0940 
     88 H88        27.0214   29.3021    0.9738 H         1 UNK         0.0703 
     89 H89        29.0284   27.4432    0.6821 H         1 UNK         0.3081 
     90 H90        29.4966   25.6296    2.2734 H         1 UNK         0.0719 
     91 H91        28.5223   25.3690    4.5390 H         1 UNK         0.0809 
     92 H92        26.9601   24.9447    3.8522 H         1 UNK         0.0809 
     93 H93        28.3476   23.8829    3.6176 H         1 UNK         0.0809 
     94 H94        28.5035   24.5246    0.6277 H         1 UNK         0.2990 
     95 H95        25.2462   24.5572   -0.7956 H         1 UNK         0.0690 
     96 H96        26.8684   24.0708   -2.5342 H         1 UNK         0.0788 
     97 H97        28.1933   23.9556   -1.3884 H         1 UNK         0.0788 
     98 H98        27.4388   25.5160   -1.7206 H         1 UNK         0.0788 
     99 H99        26.5746   22.5040    0.7438 H         1 UNK         0.2993 
    100 H100       25.0105   20.3961    0.6413 H         1 UNK         0.0949 
    101 H101       24.9385   18.3865   -0.8272 H         1 UNK         0.0767 
    102 H102       23.8600   19.6367   -1.4206 H         1 UNK         0.0767 
    103 H103       25.4036   19.3655   -2.2189 H         1 UNK         0.0767 
    104 H104       27.4064   19.4922   -0.7869 H         1 UNK         0.3013 
    105 H105       26.5568   30.7095    2.5663 H         1 UNK         0.3121 
    106 H106       28.3142   31.4247    4.6709 H         1 UNK         0.0774 
    107 H107       26.4428   32.9358    5.3471 H         1 UNK         0.0815 
    108 H108       25.6674   32.7003    3.7874 H         1 UNK         0.0815 
    109 H109       25.8415   31.3472    4.9076 H         1 UNK         0.0815 
    110 H110       28.0266   32.8195    1.5303 H         1 UNK         0.2987 
    111 H111       29.1085   35.4476    2.1883 H         1 UNK         0.0949 
    112 H112       28.7611   34.0024   -0.4978 H         1 UNK         0.0806 
    113 H113       27.5999   35.1129    0.2321 H         1 UNK         0.0806 
    114 H114       29.1686   35.6996   -0.2912 H         1 UNK         0.0806 
    115 H115       30.5099   32.3067    1.8559 H         1 UNK         0.3010 
    116 H116       33.1376   33.2820    0.8906 H         1 UNK         0.0829 
    117 H117       32.1665   31.1306   -0.0114 H         1 UNK         0.0813 
    118 H118       33.6888   30.8692    0.8225 H         1 UNK         0.0813 
    119 H119       32.1807   30.4633    1.6229 H         1 UNK         0.0813 
    120 H120       35.0441   32.3581    2.1271 H         1 UNK         0.3038 
    121 H121       34.9995   33.1257    4.9261 H         1 UNK         0.0769 
    122 H122       37.4009   32.4323    4.8296 H         1 UNK         0.0811 
    123 H123       37.0110   33.5002    3.4918 H         1 UNK         0.0811 
    124 H124       37.1639   31.7632    3.2220 H         1 UNK         0.0811 
    125 H125       35.1526   31.7983    6.6866 H         1 UNK         0.3204 
    126 H126       34.9316   30.1493    8.0946 H         1 UNK         0.0748 
    127 H127       35.7895   27.8835    7.6082 H         1 UNK         0.0771 
    128 H128       35.8407   28.2294    5.8881 H         1 UNK         0.0771 
    129 H129       36.8974   29.1019    6.9975 H         1 UNK         0.0771 
    130 H130       33.4254   29.2279    5.0029 H         1 UNK         0.2980 
    131 H131       31.3978   27.5498    6.1551 H         1 UNK         0.0545 
    132 H132       28.9463   27.9731    5.7784 H         1 UNK         0.3459 
    133 H133       28.4011   29.5420    6.2980 H         1 UNK         0.3459 
    134 H134       31.5417   28.8479    3.3908 H         1 UNK         0.0616 
    135 H135       30.3791   27.6308    3.8538 H         1 UNK         0.0616 
    136 H136       34.1220   26.7326    1.8247 H         1 UNK         0.0634 
    137 H137       33.2718   28.2469    1.9516 H         1 UNK         0.0634 
@<TRIPOS>BOND
     1    1    2 1    
     2    1   72 1    
     3    1   73 1    
     4    1   74 1    
     5    2    3 2    
     6    2    4 am   BACKBONE|DICT|INTERRES
     7    4    5 1    
     8    4   75 1    
     9    5    6 1    
    10    5   35 1    
    11    5   76 1    
    12    6    7 1    
    13    6   77 1    
    14    6   78 1    
    15    7    8 1    
    16    8    9 1    
    17    8   79 1    
    18    8   80 1    
    19    9   10 ar   
    20    9   14 ar   
    21   10   11 ar   
    22   10   81 1    
    23   11   12 ar   
    24   11   71 1    
    25   12   13 ar   
    26   12   82 1    
    27   13   14 ar   
    28   13   15 1    
    29   14   83 1    
    30   15   16 1    
    31   15   84 1    
    32   15   85 1    
    33   16   17 1    
    34   17   18 1    
    35   17   86 1    
    36   17   87 1    
    37   18   19 1    
    38   18   37 1    
    39   18   88 1    
    40   19   20 am   BACKBONE|DICT|INTERRES
    41   19   89 1    
    42   20   21 2    
    43   20   22 1    
    44   22   23 1    
    45   22   24 1    
    46   22   90 1    
    47   23   91 1    
    48   23   92 1    
    49   23   93 1    
    50   24   25 am   BACKBONE|DICT|INTERRES
    51   24   94 1    
    52   25   26 2    
    53   25   27 1    
    54   27   28 1    
    55   27   29 1    
    56   27   95 1    
    57   28   96 1    
    58   28   97 1    
    59   28   98 1    
    60   29   30 am   BACKBONE|DICT|INTERRES
    61   29   99 1    
    62   30   31 2    
    63   30   32 1    
    64   32   33 1    
    65   32   34 1    
    66   32  100 1    
    67   33  101 1    
    68   33  102 1    
    69   33  103 1    
    70   34   35 am   BACKBONE|DICT|INTERRES
    71   34  104 1    
    72   35   36 2    
    73   37   38 2    
    74   37   39 am   BACKBONE|DICT|INTERRES
    75   39   40 1    
    76   39  105 1    
    77   40   41 1    
    78   40   42 1    
    79   40  106 1    
    80   41  107 1    
    81   41  108 1    
    82   41  109 1    
    83   42   43 2    
    84   42   44 am   BACKBONE|DICT|INTERRES
    85   44   45 1    
    86   44  110 1    
    87   45   46 1    
    88   45   47 1    
    89   45  111 1    
    90   46  112 1    
    91   46  113 1    
    92   46  114 1    
    93   47   48 2    
    94   47   49 am   BACKBONE|DICT|INTERRES
    95   49   50 1    
    96   49  115 1    
    97   50   51 1    
    98   50   52 1    
    99   50  116 1    
   100   51  117 1    
   101   51  118 1    
   102   51  119 1    
   103   52   53 2    
   104   52   54 am   BACKBONE|DICT|INTERRES
   105   54   55 1    
   106   54  120 1    
   107   55   56 1    
   108   55   57 1    
   109   55  121 1    
   110   56  122 1    
   111   56  123 1    
   112   56  124 1    
   113   57   58 2    
   114   57   59 am   BACKBONE|DICT|INTERRES
   115   59   60 1    
   116   59  125 1    
   117   60   61 1    
   118   60   62 1    
   119   60  126 1    
   120   61  127 1    
   121   61  128 1    
   122   61  129 1    
   123   62   63 2    
   124   62   64 am   BACKBONE|DICT|INTERRES
   125   64   65 1    
   126   64  130 1    
   127   65   66 1    
   128   65   69 1    
   129   65  131 1    
   130   66   67 am   BACKBONE|DICT|INTERRES
   131   66   68 2    
   132   67  132 1    
   133   67  133 1    
   134   69   70 1    
   135   69  134 1    
   136   69  135 1    
   137   70   71 1    
   138   71  136 1    
   139   71  137 1    
@<TRIPOS>SUBSTRUCTURE
     1 UNK         1 GROUP             0       ****    0 ROOT    
