@<TRIPOS>MOLECULE
3R136
137   139    1
SMALL
USER_CHARGES


@<TRIPOS>ATOM
      1 CA         30.4343   23.8926   -5.6619 C.3       0 UNK        -0.1979 
      2 C          29.7373   24.7850   -4.6458 C.2       0 UNK         0.4864 
      3 O          29.0180   25.7067   -5.0325 O.2       0 UNK        -0.5359 
      4 N          29.9420   24.5167   -3.3490 N.am      1 UNK        -0.4318 
      5 CA         29.3511   25.2625   -2.2303 C.3       1 UNK         0.0824 
      6 C6         30.1672   25.0860   -0.9246 C.3       12 UNK        -0.0944 
      7 S7         30.4352   23.3473   -0.4304 S.3       12 UNK        -0.2672 
      8 C8         29.3909   23.2384    1.0614 C.3       12 UNK         0.0333 
      9 C9         30.0051   23.7633    2.3600 C.ar      12 UNK        -0.0807 
     10 C10        31.0836   24.6573    2.3935 C.ar      12 UNK        -0.0894 
     11 C11        31.5790   25.1368    3.6104 C.ar      12 UNK        -0.0804 
     12 C12        30.9988   24.7114    4.8084 C.ar      12 UNK        -0.0824 
     13 C13        29.8989   23.8489    4.7887 C.ar      12 UNK        -0.0762 
     14 C14        29.4219   23.3674    3.5667 C.ar      12 UNK        -0.0782 
     15 C15        29.1720   23.4895    6.0751 C.3       12 UNK         0.0230 
     16 S16        27.5158   24.2541    6.1258 S.3       12 UNK        -0.2608 
     17 C17        27.9161   26.0259    6.3183 C.3       12 UNK        -0.0989 
     18 CA         28.1093   26.7855    4.9758 C.3       5 UNK         0.0716 
     19 N          26.9741   26.6235    4.0549 N.am      5 UNK        -0.4135 
     20 C          27.0088   26.8098    2.7280 C.2       4 UNK         0.5031 
     21 O          28.0099   27.1952    2.1147 O.2       4 UNK        -0.5229 
     22 CA         25.7111   26.5337    1.9589 C.3       4 UNK         0.0329 
     23 CB         25.4458   27.6121    0.8934 C.3       4 UNK        -0.2001 
     24 N          25.8010   25.2225    1.3196 N.am      4 UNK        -0.4303 
     25 C          25.4825   24.0692    1.9269 C.2       3 UNK         0.5044 
     26 O          25.0363   24.0217    3.0744 O.2       3 UNK        -0.5152 
     27 CA         25.7140   22.7420    1.1681 C.3       3 UNK         0.0319 
     28 CB         24.5530   21.7453    1.3732 C.3       3 UNK        -0.2001 
     29 N          26.0385   22.8870   -0.2586 N.am      3 UNK        -0.4354 
     30 C          25.2545   23.3699   -1.2344 C.2       2 UNK         0.4964 
     31 O          24.0895   23.7333   -1.0652 O.2       2 UNK        -0.5047 
     32 CA         25.9063   23.4864   -2.6296 C.3       2 UNK         0.0288 
     33 CB         25.1186   24.4205   -3.5732 C.3       2 UNK        -0.2113 
     34 N          27.3238   23.8855   -2.5996 N.am      2 UNK        -0.4145 
     35 C          27.8468   24.9790   -2.0171 C.2       1 UNK         0.5006 
     36 O          27.1923   25.7544   -1.3206 O.2       1 UNK        -0.5103 
     37 C          28.5159   28.2620    5.1931 C.2       5 UNK         0.5055 
     38 O          28.6468   28.7122    6.3328 O.2       5 UNK        -0.5220 
     39 N          28.7127   28.9827    4.0875 N.am      6 UNK        -0.4450 
     40 CA         29.2178   30.3493    4.0177 C.3       6 UNK         0.0367 
     41 CB         28.0832   31.3499    4.3052 C.3       6 UNK        -0.1929 
     42 C          29.9036   30.6613    2.6754 C.2       6 UNK         0.5070 
     43 O          30.4967   31.7353    2.5586 O.2       6 UNK        -0.5237 
     44 N          29.8134   29.7573    1.6841 N.am      7 UNK        -0.4739 
     45 CA         30.2764   29.9729    0.3092 C.3       7 UNK         0.0276 
     46 CB         29.8919   28.7563   -0.5456 C.3       7 UNK        -0.1927 
     47 C          31.7811   30.2613    0.1763 C.2       7 UNK         0.5013 
     48 O          32.1617   31.1195   -0.6215 O.2       7 UNK        -0.5193 
     49 N          32.6106   29.5698    0.9689 N.am      8 UNK        -0.4253 
     50 CA         34.0626   29.7552    1.0008 C.3       8 UNK         0.0242 
     51 CB         34.7489   28.4169    1.3325 C.3       8 UNK        -0.2000 
     52 C          34.4334   30.8741    1.9878 C.2       8 UNK         0.4948 
     53 O          35.0638   30.6054    3.0115 O.2       8 UNK        -0.5275 
     54 N          34.0011   32.1047    1.6730 N.am      9 UNK        -0.4246 
     55 CA         34.2513   33.3530    2.4078 C.3       9 UNK         0.0261 
     56 CB         35.7125   33.8042    2.1988 C.3       9 UNK        -0.1959 
     57 C          33.8643   33.2617    3.8977 C.2       9 UNK         0.5033 
     58 O          34.7044   33.4899    4.7701 O.2       9 UNK        -0.5390 
     59 N          32.6045   32.8790    4.1490 N.am      10 UNK        -0.4215 
     60 CA         31.9838   32.6145    5.4540 C.3       10 UNK         0.0240 
     61 CB         32.1420   33.7961    6.4356 C.3       10 UNK        -0.1982 
     62 C          32.3835   31.2674    6.0899 C.2       10 UNK         0.4970 
     63 O          31.8494   30.9481    7.1522 O.2       10 UNK        -0.4916 
     64 N          33.2604   30.4862    5.4385 N.am      11 UNK        -0.4279 
     65 CA         33.6868   29.1331    5.8451 C.3       11 UNK         0.1003 
     66 C          34.4268   29.0654    7.2175 C.2       11 UNK         0.5709 
     67 N          35.0093   30.1560    7.7027 N.am      11 UNK        -0.7358 
     68 O          34.5115   28.0080    7.8381 O.2       11 UNK        -0.4999 
     69 C69        32.5467   28.0800    5.6933 C.3       12 UNK        -0.0954 
     70 S70        32.0975   27.8295    3.9410 S.3       12 UNK        -0.2268 
     71 C71        32.7169   26.1446    3.6213 C.3       12 UNK         0.0203 
     72 H72        31.0901   24.4883   -6.2963 H         1 UNK         0.0888 
     73 H73        31.0364   23.1211   -5.1822 H         1 UNK         0.0888 
     74 H74        29.6982   23.4019   -6.2981 H         1 UNK         0.0888 
     75 H75        30.5464   23.7511   -3.0828 H         1 UNK         0.3017 
     76 H76        29.4058   26.3222   -2.4900 H         1 UNK         0.0873 
     77 H77        31.1505   25.5406   -1.0546 H         1 UNK         0.0745 
     78 H78        29.7006   25.6354   -0.1040 H         1 UNK         0.0745 
     79 H79        29.1218   22.1894    1.1943 H         1 UNK         0.0705 
     80 H80        28.4637   23.7811    0.8817 H         1 UNK         0.0705 
     81 H81        31.5369   25.0013    1.4760 H         1 UNK         0.1334 
     82 H82        31.3666   25.0985    5.7486 H         1 UNK         0.1417 
     83 H83        28.5641   22.7083    3.5590 H         1 UNK         0.1562 
     84 H84        29.7449   23.7931    6.9528 H         1 UNK         0.0748 
     85 H85        29.0650   22.4056    6.1367 H         1 UNK         0.0748 
     86 H86        28.8119   26.1108    6.9367 H         1 UNK         0.0940 
     87 H87        27.1117   26.4856    6.8956 H         1 UNK         0.0940 
     88 H88        28.9668   26.3456    4.4716 H         1 UNK         0.0703 
     89 H89        26.1204   26.2785    4.4703 H         1 UNK         0.3081 
     90 H90        24.8703   26.5486    2.6558 H         1 UNK         0.0719 
     91 H91        26.2615   27.6886    0.1740 H         1 UNK         0.0809 
     92 H92        24.5313   27.4032    0.3381 H         1 UNK         0.0809 
     93 H93        25.3304   28.5933    1.3553 H         1 UNK         0.0809 
     94 H94        26.1980   25.2096    0.3854 H         1 UNK         0.2990 
     95 H95        26.5961   22.2960    1.6282 H         1 UNK         0.0690 
     96 H96        24.7382   20.8062    0.8519 H         1 UNK         0.0788 
     97 H97        23.6042   22.1468    1.0163 H         1 UNK         0.0788 
     98 H98        24.4238   21.5058    2.4295 H         1 UNK         0.0788 
     99 H99        26.9757   22.6161   -0.5207 H         1 UNK         0.2993 
    100 H100       25.8758   22.4833   -3.0579 H         1 UNK         0.0949 
    101 H101       25.0648   25.4365   -3.1801 H         1 UNK         0.0767 
    102 H102       25.5799   24.4679   -4.5598 H         1 UNK         0.0767 
    103 H103       24.0954   24.0691   -3.7123 H         1 UNK         0.0767 
    104 H104       27.9558   23.2976   -3.1248 H         1 UNK         0.3013 
    105 H105       28.5450   28.4963    3.2103 H         1 UNK         0.3121 
    106 H106       29.9817   30.4526    4.7872 H         1 UNK         0.0774 
    107 H107       28.4427   32.3786    4.2567 H         1 UNK         0.0815 
    108 H108       27.2721   31.2523    3.5829 H         1 UNK         0.0815 
    109 H109       27.6653   31.2034    5.3011 H         1 UNK         0.0815 
    110 H110       29.3308   28.8823    1.8393 H         1 UNK         0.2987 
    111 H111       29.7441   30.8443   -0.0782 H         1 UNK         0.0949 
    112 H112       30.1643   28.9084   -1.5909 H         1 UNK         0.0806 
    113 H113       30.4043   27.8592   -0.2007 H         1 UNK         0.0806 
    114 H114       28.8189   28.5633   -0.5135 H         1 UNK         0.0806 
    115 H115       32.2147   28.9324    1.6469 H         1 UNK         0.3010 
    116 H116       34.4133   30.0599    0.0121 H         1 UNK         0.0829 
    117 H117       34.4273   27.6234    0.6579 H         1 UNK         0.0813 
    118 H118       35.8315   28.5066    1.2353 H         1 UNK         0.0813 
    119 H119       34.5482   28.0966    2.3538 H         1 UNK         0.0813 
    120 H120       33.4385   32.1900    0.8335 H         1 UNK         0.3038 
    121 H121       33.6038   34.1123    1.9664 H         1 UNK         0.0769 
    122 H122       35.8964   34.7678    2.6755 H         1 UNK         0.0811 
    123 H123       35.9455   33.9176    1.1401 H         1 UNK         0.0811 
    124 H124       36.4200   33.0906    2.6231 H         1 UNK         0.0811 
    125 H125       32.0026   32.6578    3.3571 H         1 UNK         0.3204 
    126 H126       30.9174   32.5358    5.2441 H         1 UNK         0.0748 
    127 H127       31.5002   33.6637    7.3075 H         1 UNK         0.0771 
    128 H128       33.1634   33.8898    6.8046 H         1 UNK         0.0771 
    129 H129       31.8623   34.7411    5.9701 H         1 UNK         0.0771 
    130 H130       33.7012   30.8312    4.5939 H         1 UNK         0.2980 
    131 H131       34.4647   28.8577    5.1323 H         1 UNK         0.0545 
    132 H132       35.4965   30.1061    8.5833 H         1 UNK         0.3459 
    133 H133       34.9633   31.0261    7.1965 H         1 UNK         0.3459 
    134 H134       31.6555   28.3892    6.2409 H         1 UNK         0.0616 
    135 H135       32.8339   27.1193    6.1210 H         1 UNK         0.0616 
    136 H136       33.4714   25.8566    4.3540 H         1 UNK         0.0634 
    137 H137       33.2238   26.1400    2.6559 H         1 UNK         0.0634 
@<TRIPOS>BOND
     1    1    2 1    
     2    1   72 1    
     3    1   73 1    
     4    1   74 1    
     5    2    3 2    
     6    2    4 am   BACKBONE|DICT|INTERRES
     7    4    5 1    
     8    4   75 1    
     9    5    6 1    
    10    5   35 1    
    11    5   76 1    
    12    6    7 1    
    13    6   77 1    
    14    6   78 1    
    15    7    8 1    
    16    8    9 1    
    17    8   79 1    
    18    8   80 1    
    19    9   10 ar   
    20    9   14 ar   
    21   10   11 ar   
    22   10   81 1    
    23   11   12 ar   
    24   11   71 1    
    25   12   13 ar   
    26   12   82 1    
    27   13   14 ar   
    28   13   15 1    
    29   14   83 1    
    30   15   16 1    
    31   15   84 1    
    32   15   85 1    
    33   16   17 1    
    34   17   18 1    
    35   17   86 1    
    36   17   87 1    
    37   18   19 1    
    38   18   37 1    
    39   18   88 1    
    40   19   20 am   BACKBONE|DICT|INTERRES
    41   19   89 1    
    42   20   21 2    
    43   20   22 1    
    44   22   23 1    
    45   22   24 1    
    46   22   90 1    
    47   23   91 1    
    48   23   92 1    
    49   23   93 1    
    50   24   25 am   BACKBONE|DICT|INTERRES
    51   24   94 1    
    52   25   26 2    
    53   25   27 1    
    54   27   28 1    
    55   27   29 1    
    56   27   95 1    
    57   28   96 1    
    58   28   97 1    
    59   28   98 1    
    60   29   30 am   BACKBONE|DICT|INTERRES
    61   29   99 1    
    62   30   31 2    
    63   30   32 1    
    64   32   33 1    
    65   32   34 1    
    66   32  100 1    
    67   33  101 1    
    68   33  102 1    
    69   33  103 1    
    70   34   35 am   BACKBONE|DICT|INTERRES
    71   34  104 1    
    72   35   36 2    
    73   37   38 2    
    74   37   39 am   BACKBONE|DICT|INTERRES
    75   39   40 1    
    76   39  105 1    
    77   40   41 1    
    78   40   42 1    
    79   40  106 1    
    80   41  107 1    
    81   41  108 1    
    82   41  109 1    
    83   42   43 2    
    84   42   44 am   BACKBONE|DICT|INTERRES
    85   44   45 1    
    86   44  110 1    
    87   45   46 1    
    88   45   47 1    
    89   45  111 1    
    90   46  112 1    
    91   46  113 1    
    92   46  114 1    
    93   47   48 2    
    94   47   49 am   BACKBONE|DICT|INTERRES
    95   49   50 1    
    96   49  115 1    
    97   50   51 1    
    98   50   52 1    
    99   50  116 1    
   100   51  117 1    
   101   51  118 1    
   102   51  119 1    
   103   52   53 2    
   104   52   54 am   BACKBONE|DICT|INTERRES
   105   54   55 1    
   106   54  120 1    
   107   55   56 1    
   108   55   57 1    
   109   55  121 1    
   110   56  122 1    
   111   56  123 1    
   112   56  124 1    
   113   57   58 2    
   114   57   59 am   BACKBONE|DICT|INTERRES
   115   59   60 1    
   116   59  125 1    
   117   60   61 1    
   118   60   62 1    
   119   60  126 1    
   120   61  127 1    
   121   61  128 1    
   122   61  129 1    
   123   62   63 2    
   124   62   64 am   BACKBONE|DICT|INTERRES
   125   64   65 1    
   126   64  130 1    
   127   65   66 1    
   128   65   69 1    
   129   65  131 1    
   130   66   67 am   BACKBONE|DICT|INTERRES
   131   66   68 2    
   132   67  132 1    
   133   67  133 1    
   134   69   70 1    
   135   69  134 1    
   136   69  135 1    
   137   70   71 1    
   138   71  136 1    
   139   71  137 1    
@<TRIPOS>SUBSTRUCTURE
     1 UNK         1 GROUP             0       ****    0 ROOT    
