@<TRIPOS>MOLECULE
3R136
137   139    1
SMALL
USER_CHARGES


@<TRIPOS>ATOM
      1 CA         28.7941   21.7069   -3.0764 C.3       0 UNK        -0.1979 
      2 C          29.9044   22.7144   -2.8191 C.2       0 UNK         0.4864 
      3 O          30.6894   23.0080   -3.7220 O.2       0 UNK        -0.5359 
      4 N          29.9675   23.2690   -1.6017 N.am      1 UNK        -0.4318 
      5 CA         30.9674   24.2421   -1.1383 C.3       1 UNK         0.0824 
      6 C6         31.1065   24.1558    0.4053 C.3       12 UNK        -0.0944 
      7 S7         32.6922   24.8102    1.0324 S.3       12 UNK        -0.2672 
      8 C8         32.8960   23.8483    2.5651 C.3       12 UNK         0.0333 
      9 C9         31.9817   24.3222    3.6900 C.ar      12 UNK        -0.0807 
     10 C10        32.2836   25.4911    4.3949 C.ar      12 UNK        -0.0894 
     11 C11        31.5064   25.8916    5.4852 C.ar      12 UNK        -0.0804 
     12 C12        30.4073   25.1174    5.8660 C.ar      12 UNK        -0.0824 
     13 C13        30.0825   23.9521    5.1620 C.ar      12 UNK        -0.0762 
     14 C14        30.8697   23.5638    4.0713 C.ar      12 UNK        -0.0782 
     15 C15        28.9180   23.0787    5.6114 C.3       12 UNK         0.0230 
     16 S16        27.3521   23.5270    4.7964 S.3       12 UNK        -0.2608 
     17 C17        26.8818   25.0461    5.6937 C.3       12 UNK        -0.0989 
     18 CA         26.9965   26.3044    4.7990 C.3       5 UNK         0.0716 
     19 N          26.0763   26.2165    3.6525 N.am      5 UNK        -0.4135 
     20 C          25.9412   27.0865    2.6441 C.2       4 UNK         0.5031 
     21 O          26.4670   28.2005    2.6153 O.2       4 UNK        -0.5229 
     22 CA         25.0070   26.6588    1.4997 C.3       4 UNK         0.0329 
     23 CB         23.5593   27.0734    1.8096 C.3       4 UNK        -0.2001 
     24 N          25.4137   27.2578    0.2272 N.am      4 UNK        -0.4303 
     25 C          26.5525   26.9691   -0.4153 C.2       3 UNK         0.5044 
     26 O          27.3208   26.0641   -0.0762 O.2       3 UNK        -0.5152 
     27 CA         26.8780   27.8370   -1.6401 C.3       3 UNK         0.0319 
     28 CB         26.9131   29.3387   -1.2939 C.3       3 UNK        -0.2001 
     29 N          28.1759   27.4343   -2.1680 N.am      3 UNK        -0.4354 
     30 C          28.5700   27.4768   -3.4420 C.2       2 UNK         0.4964 
     31 O          27.8667   27.9054   -4.3578 O.2       2 UNK        -0.5047 
     32 CA         29.9805   26.9480   -3.7684 C.3       2 UNK         0.0288 
     33 CB         31.0120   28.0892   -3.7056 C.3       2 UNK        -0.2113 
     34 N          30.4090   25.7799   -2.9791 N.am      2 UNK        -0.4145 
     35 C          30.6663   25.6701   -1.6664 C.2       1 UNK         0.5006 
     36 O          30.6278   26.6287   -0.8922 O.2       1 UNK        -0.5103 
     37 C          26.9007   27.5891    5.6566 C.2       5 UNK         0.5055 
     38 O          27.7878   27.8199    6.4781 O.2       5 UNK        -0.5220 
     39 N          25.8567   28.4059    5.4654 N.am      6 UNK        -0.4450 
     40 CA         25.7291   29.7402    6.0522 C.3       6 UNK         0.0367 
     41 CB         24.2759   30.2181    5.8993 C.3       6 UNK        -0.1929 
     42 C          26.6988   30.7723    5.4402 C.2       6 UNK         0.5070 
     43 O          27.0323   31.7439    6.1194 O.2       6 UNK        -0.5237 
     44 N          27.1217   30.5697    4.1836 N.am      7 UNK        -0.4739 
     45 CA         27.9937   31.4833    3.4386 C.3       7 UNK         0.0276 
     46 CB         27.1684   32.6610    2.8779 C.3       7 UNK        -0.1927 
     47 C          28.7766   30.7306    2.3489 C.2       7 UNK         0.5013 
     48 O          28.9235   31.2366    1.2344 O.2       7 UNK        -0.5193 
     49 N          29.2446   29.5231    2.6826 N.am      8 UNK        -0.4253 
     50 CA         30.0063   28.6448    1.7961 C.3       8 UNK         0.0242 
     51 CB         29.9021   27.2060    2.3200 C.3       8 UNK        -0.2000 
     52 C          31.4697   29.0941    1.6292 C.2       8 UNK         0.4948 
     53 O          31.9662   29.9102    2.4097 O.2       8 UNK        -0.5275 
     54 N          32.1310   28.5457    0.6002 N.am      9 UNK        -0.4246 
     55 CA         33.4551   28.9464    0.1079 C.3       9 UNK         0.0261 
     56 CB         33.8707   28.0283   -1.0533 C.3       9 UNK        -0.1959 
     57 C          34.5769   28.9882    1.1583 C.2       9 UNK         0.5033 
     58 O          35.3904   29.9131    1.1265 O.2       9 UNK        -0.5390 
     59 N          34.6157   27.9881    2.0477 N.am      10 UNK        -0.4215 
     60 CA         35.6652   27.8422    3.0608 C.3       10 UNK         0.0240 
     61 CB         36.0369   26.3546    3.2023 C.3       10 UNK        -0.1982 
     62 C          35.3098   28.4707    4.4219 C.2       10 UNK         0.4970 
     63 O          36.1246   28.3635    5.3402 O.2       10 UNK        -0.4916 
     64 N          34.1300   29.0945    4.5608 N.am      11 UNK        -0.4279 
     65 CA         33.7177   29.7789    5.7988 C.3       11 UNK         0.1003 
     66 C          34.5009   31.1004    6.0383 C.2       11 UNK         0.5709 
     67 N          34.6380   31.5206    7.2891 N.am      11 UNK        -0.7358 
     68 O          34.9539   31.7652    5.1079 O.2       11 UNK        -0.4999 
     69 C69        32.1866   30.0326    5.8576 C.3       12 UNK        -0.0954 
     70 S70        31.0870   28.6133    5.5121 S.3       12 UNK        -0.2268 
     71 C71        31.8766   27.1504    6.2554 C.3       12 UNK         0.0203 
     72 H72        28.1552   22.0519   -3.8888 H         1 UNK         0.0888 
     73 H73        29.2197   20.7454   -3.3620 H         1 UNK         0.0888 
     74 H74        28.1705   21.5535   -2.1960 H         1 UNK         0.0888 
     75 H75        29.2624   23.0247   -0.9205 H         1 UNK         0.3017 
     76 H76        31.9279   23.9534   -1.5711 H         1 UNK         0.0873 
     77 H77        30.2665   24.6377    0.9064 H         1 UNK         0.0745 
     78 H78        31.0565   23.1088    0.7086 H         1 UNK         0.0745 
     79 H79        33.9331   23.9314    2.8908 H         1 UNK         0.0705 
     80 H80        32.7386   22.7891    2.3563 H         1 UNK         0.0705 
     81 H81        33.1293   26.0929    4.1028 H         1 UNK         0.1334 
     82 H82        29.8126   25.4222    6.7157 H         1 UNK         0.1417 
     83 H83        30.6311   22.6547    3.5363 H         1 UNK         0.1562 
     84 H84        28.7997   23.1268    6.6950 H         1 UNK         0.0748 
     85 H85        29.1370   22.0341    5.3847 H         1 UNK         0.0748 
     86 H86        27.4992   25.1372    6.5886 H         1 UNK         0.0940 
     87 H87        25.8589   24.9301    6.0569 H         1 UNK         0.0940 
     88 H88        28.0030   26.3182    4.3788 H         1 UNK         0.0703 
     89 H89        25.5806   25.3394    3.5838 H         1 UNK         0.3081 
     90 H90        25.0513   25.5725    1.3944 H         1 UNK         0.0719 
     91 H91        23.2081   26.6151    2.7351 H         1 UNK         0.0809 
     92 H92        22.8785   26.7595    1.0180 H         1 UNK         0.0809 
     93 H93        23.4646   28.1542    1.9248 H         1 UNK         0.0809 
     94 H94        24.8546   28.0297   -0.1042 H         1 UNK         0.2990 
     95 H95        26.1071   27.6517   -2.3909 H         1 UNK         0.0690 
     96 H96        27.2057   29.9386   -2.1558 H         1 UNK         0.0788 
     97 H97        27.6197   29.5458   -0.4898 H         1 UNK         0.0788 
     98 H98        25.9367   29.7007   -0.9713 H         1 UNK         0.0788 
     99 H99        28.8130   27.0402   -1.4801 H         1 UNK         0.2993 
    100 H100       29.9444   26.5980   -4.8015 H         1 UNK         0.0949 
    101 H101       30.7551   28.8811   -4.4103 H         1 UNK         0.0767 
    102 H102       31.0516   28.5440   -2.7155 H         1 UNK         0.0767 
    103 H103       32.0103   27.7373   -3.9648 H         1 UNK         0.0767 
    104 H104       30.4648   24.9088   -3.5020 H         1 UNK         0.3013 
    105 H105       25.1828   28.1537    4.7578 H         1 UNK         0.3121 
    106 H106       25.9549   29.6686    7.1185 H         1 UNK         0.0774 
    107 H107       24.1396   31.2006    6.3536 H         1 UNK         0.0815 
    108 H108       23.9863   30.3017    4.8509 H         1 UNK         0.0815 
    109 H109       23.5794   29.5373    6.3889 H         1 UNK         0.0815 
    110 H110       26.8238   29.7350    3.6791 H         1 UNK         0.2987 
    111 H111       28.7457   31.8859    4.1212 H         1 UNK         0.0949 
    112 H112       26.6674   33.2140    3.6722 H         1 UNK         0.0806 
    113 H113       27.8051   33.3706    2.3479 H         1 UNK         0.0806 
    114 H114       26.4074   32.3155    2.1774 H         1 UNK         0.0806 
    115 H115       29.1273   29.2081    3.6343 H         1 UNK         0.3010 
    116 H116       29.5484   28.6722    0.8049 H         1 UNK         0.0829 
    117 H117       28.9389   26.7653    2.0661 H         1 UNK         0.0813 
    118 H118       30.6691   26.5747    1.8842 H         1 UNK         0.0813 
    119 H119       30.0221   27.1429    3.3975 H         1 UNK         0.0813 
    120 H120       31.6364   27.8493    0.0430 H         1 UNK         0.3038 
    121 H121       33.3474   29.9595   -0.2844 H         1 UNK         0.0769 
    122 H122       33.9214   26.9835   -0.7455 H         1 UNK         0.0811 
    123 H123       34.8533   28.3029   -1.4398 H         1 UNK         0.0811 
    124 H124       33.1724   28.0964   -1.8835 H         1 UNK         0.0811 
    125 H125       33.9057   27.2706    1.9978 H         1 UNK         0.3204 
    126 H126       36.5656   28.3563    2.7173 H         1 UNK         0.0748 
    127 H127       36.9254   26.2353    3.8238 H         1 UNK         0.0771 
    128 H128       35.2456   25.7708    3.6667 H         1 UNK         0.0771 
    129 H129       36.2620   25.9062    2.2343 H         1 UNK         0.0771 
    130 H130       33.5152   29.2098    3.7634 H         1 UNK         0.2980 
    131 H131       33.9763   29.1285    6.6353 H         1 UNK         0.0545 
    132 H132       34.2630   30.9933    8.0623 H         1 UNK         0.3459 
    133 H133       35.1313   32.3821    7.4639 H         1 UNK         0.3459 
    134 H134       31.9119   30.4188    6.8406 H         1 UNK         0.0616 
    135 H135       31.9150   30.8138    5.1448 H         1 UNK         0.0616 
    136 H136       31.5652   27.0693    7.2977 H         1 UNK         0.0634 
    137 H137       32.9606   27.2362    6.2666 H         1 UNK         0.0634 
@<TRIPOS>BOND
     1    1    2 1    
     2    1   72 1    
     3    1   73 1    
     4    1   74 1    
     5    2    3 2    
     6    2    4 am   BACKBONE|DICT|INTERRES
     7    4    5 1    
     8    4   75 1    
     9    5    6 1    
    10    5   35 1    
    11    5   76 1    
    12    6    7 1    
    13    6   77 1    
    14    6   78 1    
    15    7    8 1    
    16    8    9 1    
    17    8   79 1    
    18    8   80 1    
    19    9   10 ar   
    20    9   14 ar   
    21   10   11 ar   
    22   10   81 1    
    23   11   12 ar   
    24   11   71 1    
    25   12   13 ar   
    26   12   82 1    
    27   13   14 ar   
    28   13   15 1    
    29   14   83 1    
    30   15   16 1    
    31   15   84 1    
    32   15   85 1    
    33   16   17 1    
    34   17   18 1    
    35   17   86 1    
    36   17   87 1    
    37   18   19 1    
    38   18   37 1    
    39   18   88 1    
    40   19   20 am   BACKBONE|DICT|INTERRES
    41   19   89 1    
    42   20   21 2    
    43   20   22 1    
    44   22   23 1    
    45   22   24 1    
    46   22   90 1    
    47   23   91 1    
    48   23   92 1    
    49   23   93 1    
    50   24   25 am   BACKBONE|DICT|INTERRES
    51   24   94 1    
    52   25   26 2    
    53   25   27 1    
    54   27   28 1    
    55   27   29 1    
    56   27   95 1    
    57   28   96 1    
    58   28   97 1    
    59   28   98 1    
    60   29   30 am   BACKBONE|DICT|INTERRES
    61   29   99 1    
    62   30   31 2    
    63   30   32 1    
    64   32   33 1    
    65   32   34 1    
    66   32  100 1    
    67   33  101 1    
    68   33  102 1    
    69   33  103 1    
    70   34   35 am   BACKBONE|DICT|INTERRES
    71   34  104 1    
    72   35   36 2    
    73   37   38 2    
    74   37   39 am   BACKBONE|DICT|INTERRES
    75   39   40 1    
    76   39  105 1    
    77   40   41 1    
    78   40   42 1    
    79   40  106 1    
    80   41  107 1    
    81   41  108 1    
    82   41  109 1    
    83   42   43 2    
    84   42   44 am   BACKBONE|DICT|INTERRES
    85   44   45 1    
    86   44  110 1    
    87   45   46 1    
    88   45   47 1    
    89   45  111 1    
    90   46  112 1    
    91   46  113 1    
    92   46  114 1    
    93   47   48 2    
    94   47   49 am   BACKBONE|DICT|INTERRES
    95   49   50 1    
    96   49  115 1    
    97   50   51 1    
    98   50   52 1    
    99   50  116 1    
   100   51  117 1    
   101   51  118 1    
   102   51  119 1    
   103   52   53 2    
   104   52   54 am   BACKBONE|DICT|INTERRES
   105   54   55 1    
   106   54  120 1    
   107   55   56 1    
   108   55   57 1    
   109   55  121 1    
   110   56  122 1    
   111   56  123 1    
   112   56  124 1    
   113   57   58 2    
   114   57   59 am   BACKBONE|DICT|INTERRES
   115   59   60 1    
   116   59  125 1    
   117   60   61 1    
   118   60   62 1    
   119   60  126 1    
   120   61  127 1    
   121   61  128 1    
   122   61  129 1    
   123   62   63 2    
   124   62   64 am   BACKBONE|DICT|INTERRES
   125   64   65 1    
   126   64  130 1    
   127   65   66 1    
   128   65   69 1    
   129   65  131 1    
   130   66   67 am   BACKBONE|DICT|INTERRES
   131   66   68 2    
   132   67  132 1    
   133   67  133 1    
   134   69   70 1    
   135   69  134 1    
   136   69  135 1    
   137   70   71 1    
   138   71  136 1    
   139   71  137 1    
@<TRIPOS>SUBSTRUCTURE
     1 UNK         1 GROUP             0       ****    0 ROOT    
