@<TRIPOS>MOLECULE
3R136
137   139    1
SMALL
USER_CHARGES


@<TRIPOS>ATOM
      1 CA         31.1356   28.9182   -3.0143 C.3       0 UNK        -0.1979 
      2 C          30.5390   27.5874   -2.5821 C.2       0 UNK         0.4864 
      3 O          30.2157   26.7630   -3.4384 O.2       0 UNK        -0.5359 
      4 N          30.3898   27.3772   -1.2646 N.am      1 UNK        -0.4318 
      5 CA         29.8078   26.2017   -0.6042 C.3       1 UNK         0.0824 
      6 C6         30.5692   24.8797   -0.9066 C.3       12 UNK        -0.0944 
      7 S7         29.8725   23.4001   -0.0910 S.3       12 UNK        -0.2672 
      8 C8         31.3341   22.6793    0.7223 C.3       12 UNK         0.0333 
      9 C9         31.5421   23.2350    2.1232 C.ar      12 UNK        -0.0807 
     10 C10        32.6684   24.0060    2.4334 C.ar      12 UNK        -0.0894 
     11 C11        32.8735   24.4644    3.7400 C.ar      12 UNK        -0.0804 
     12 C12        31.9357   24.1598    4.7311 C.ar      12 UNK        -0.0824 
     13 C13        30.7987   23.4076    4.4279 C.ar      12 UNK        -0.0762 
     14 C14        30.6155   22.9356    3.1262 C.ar      12 UNK        -0.0782 
     15 C15        29.7712   23.1013    5.5079 C.3       12 UNK         0.0230 
     16 S16        28.1560   23.8670    5.1574 S.3       12 UNK        -0.2608 
     17 C17        28.5801   25.6410    5.0542 C.3       12 UNK        -0.0989 
     18 CA         28.5150   26.1776    3.5958 C.3       5 UNK         0.0716 
     19 N          27.2322   25.9728    2.9166 N.am      5 UNK        -0.4135 
     20 C          26.0084   26.3491    3.3151 C.2       4 UNK         0.5031 
     21 O          25.7812   26.9258    4.3801 O.2       4 UNK        -0.5229 
     22 CA         24.8422   26.0770    2.3501 C.3       4 UNK         0.0329 
     23 CB         24.3808   27.3946    1.7040 C.3       4 UNK        -0.2001 
     24 N          25.2205   25.1483    1.2838 N.am      4 UNK        -0.4303 
     25 C          24.9129   23.8457    1.2224 C.2       3 UNK         0.5044 
     26 O          24.2294   23.2710    2.0708 O.2       3 UNK        -0.5152 
     27 CA         25.4810   23.0321    0.0342 C.3       3 UNK         0.0319 
     28 CB         24.4309   22.0798   -0.5758 C.3       3 UNK        -0.2001 
     29 N          26.1302   23.8470   -1.0053 N.am      3 UNK        -0.4354 
     30 C          25.5662   24.7759   -1.7956 C.2       2 UNK         0.4964 
     31 O          24.3518   24.9701   -1.8592 O.2       2 UNK        -0.5047 
     32 CA         26.5208   25.6780   -2.6110 C.3       2 UNK         0.0288 
     33 CB         25.9527   27.1032   -2.7854 C.3       2 UNK        -0.2113 
     34 N          27.8949   25.7611   -2.0899 N.am      2 UNK        -0.4145 
     35 C          28.2893   26.1256   -0.8600 C.2       1 UNK         0.5006 
     36 O          27.5135   26.3917    0.0590 O.2       1 UNK        -0.5103 
     37 C          28.9427   27.6517    3.4976 C.2       5 UNK         0.5055 
     38 O          29.9063   27.9595    2.7969 O.2       5 UNK        -0.5220 
     39 N          28.1806   28.5381    4.1520 N.am      6 UNK        -0.4450 
     40 CA         28.4310   29.9749    4.3196 C.3       6 UNK         0.0367 
     41 CB         27.3772   30.5423    5.2855 C.3       6 UNK        -0.1929 
     42 C          28.4921   30.8133    3.0260 C.2       6 UNK         0.5070 
     43 O          28.8261   31.9964    3.0985 O.2       6 UNK        -0.5237 
     44 N          28.1828   30.2114    1.8692 N.am      7 UNK        -0.4739 
     45 CA         28.4090   30.8010    0.5482 C.3       7 UNK         0.0276 
     46 CB         27.6269   30.0041   -0.5075 C.3       7 UNK        -0.1927 
     47 C          29.9036   30.8813    0.1767 C.2       7 UNK         0.5013 
     48 O          30.2607   31.7114   -0.6594 O.2       7 UNK        -0.5193 
     49 N          30.7471   30.0336    0.7876 N.am      8 UNK        -0.4253 
     50 CA         32.2064   30.1292    0.7087 C.3       8 UNK         0.0242 
     51 CB         32.8209   28.7191    0.7027 C.3       8 UNK        -0.2000 
     52 C          32.7438   30.9511    1.8900 C.2       8 UNK         0.4948 
     53 O          32.1656   30.9191    2.9789 O.2       8 UNK        -0.5275 
     54 N          33.8568   31.6594    1.6587 N.am      9 UNK        -0.4246 
     55 CA         34.5437   32.4768    2.6606 C.3       9 UNK         0.0261 
     56 CB         35.6419   33.3080    1.9770 C.3       9 UNK        -0.1959 
     57 C          35.1382   31.6124    3.7845 C.2       9 UNK         0.5033 
     58 O          35.8031   30.6165    3.4930 O.2       9 UNK        -0.5390 
     59 N          34.8787   32.0149    5.0364 N.am      10 UNK        -0.4215 
     60 CA         35.2944   31.3883    6.3022 C.3       10 UNK         0.0240 
     61 CB         36.8324   31.3182    6.4140 C.3       10 UNK        -0.1982 
     62 C          34.6395   30.0258    6.6186 C.2       10 UNK         0.4970 
     63 O          34.8563   29.5101    7.7165 O.2       10 UNK        -0.4916 
     64 N          33.8429   29.4737    5.6969 N.am      11 UNK        -0.4279 
     65 CA         33.0512   28.2539    5.8928 C.3       11 UNK         0.1003 
     66 C          31.8087   28.5037    6.7906 C.2       11 UNK         0.5709 
     67 N          31.3534   27.4874    7.5114 N.am      11 UNK        -0.7358 
     68 O          31.2354   29.5910    6.8178 O.2       11 UNK        -0.4999 
     69 C69        32.6317   27.6433    4.5355 C.3       12 UNK        -0.0954 
     70 S70        34.0420   26.9994    3.5745 S.3       12 UNK        -0.2268 
     71 C71        34.1236   25.2579    4.0995 C.3       12 UNK         0.0203 
     72 H72        31.4424   29.5275   -2.1661 H         1 UNK         0.0888 
     73 H73        32.0101   28.7504   -3.6424 H         1 UNK         0.0888 
     74 H74        30.4054   29.4855   -3.5907 H         1 UNK         0.0888 
     75 H75        30.6657   28.1135   -0.6297 H         1 UNK         0.3017 
     76 H76        29.9227   26.3877    0.4653 H         1 UNK         0.0873 
     77 H77        30.5931   24.6730   -1.9769 H         1 UNK         0.0745 
     78 H78        31.6116   24.9985   -0.6077 H         1 UNK         0.0745 
     79 H79        31.1907   21.6002    0.7942 H         1 UNK         0.0705 
     80 H80        32.2195   22.8229    0.1011 H         1 UNK         0.0705 
     81 H81        33.3952   24.2362    1.6663 H         1 UNK         0.1334 
     82 H82        32.0915   24.5123    5.7412 H         1 UNK         0.1417 
     83 H83        29.7418   22.3428    2.8902 H         1 UNK         0.1562 
     84 H84        30.1180   23.4373    6.4864 H         1 UNK         0.0748 
     85 H85        29.6418   22.0208    5.5830 H         1 UNK         0.0748 
     86 H86        29.5748   25.8014    5.4735 H         1 UNK         0.0940 
     87 H87        27.8981   26.1846    5.7092 H         1 UNK         0.0940 
     88 H88        29.2439   25.6117    3.0126 H         1 UNK         0.0703 
     89 H89        27.3098   25.6149    1.9734 H         1 UNK         0.3081 
     90 H90        24.0158   25.6669    2.9341 H         1 UNK         0.0719 
     91 H91        24.0677   28.1148    2.4613 H         1 UNK         0.0809 
     92 H92        25.1770   27.8589    1.1198 H         1 UNK         0.0809 
     93 H93        23.5313   27.2327    1.0403 H         1 UNK         0.0809 
     94 H94        25.8158   25.5342    0.5575 H         1 UNK         0.2990 
     95 H95        26.2742   22.4135    0.4569 H         1 UNK         0.0690 
     96 H96        24.8488   21.5045   -1.4018 H         1 UNK         0.0788 
     97 H97        23.5594   22.6187   -0.9480 H         1 UNK         0.0788 
     98 H98        24.0739   21.3647    0.1664 H         1 UNK         0.0788 
     99 H99        27.1379   23.7701   -1.0395 H         1 UNK         0.2993 
    100 H100       26.5937   25.2227   -3.5998 H         1 UNK         0.0949 
    101 H101       25.7920   27.5930   -1.8240 H         1 UNK         0.0767 
    102 H102       26.6260   27.7295   -3.3709 H         1 UNK         0.0767 
    103 H103       24.9949   27.0866   -3.3071 H         1 UNK         0.0767 
    104 H104       28.6338   25.6412   -2.7764 H         1 UNK         0.3013 
    105 H105       27.3414   28.1732    4.5932 H         1 UNK         0.3121 
    106 H106       29.4119   30.0733    4.7892 H         1 UNK         0.0774 
    107 H107       26.3685   30.4424    4.8827 H         1 UNK         0.0815 
    108 H108       27.4079   30.0338    6.2493 H         1 UNK         0.0815 
    109 H109       27.5489   31.6022    5.4782 H         1 UNK         0.0815 
    110 H110       27.9230   29.2363    1.8986 H         1 UNK         0.2987 
    111 H111       28.0217   31.8223    0.5590 H         1 UNK         0.0949 
    112 H112       26.5601   29.9853   -0.2841 H         1 UNK         0.0806 
    113 H113       27.7426   30.4481   -1.4972 H         1 UNK         0.0806 
    114 H114       27.9734   28.9749   -0.5722 H         1 UNK         0.0806 
    115 H115       30.3859   29.4445    1.5345 H         1 UNK         0.3010 
    116 H116       32.5034   30.6333   -0.2136 H         1 UNK         0.0829 
    117 H117       32.3357   28.0625    1.4252 H         1 UNK         0.0813 
    118 H118       32.7490   28.2531   -0.2781 H         1 UNK         0.0813 
    119 H119       33.8829   28.7465    0.9520 H         1 UNK         0.0813 
    120 H120       34.2975   31.5961    0.7525 H         1 UNK         0.3038 
    121 H121       33.8097   33.1641    3.0872 H         1 UNK         0.0769 
    122 H122       36.3966   32.6736    1.5099 H         1 UNK         0.0811 
    123 H123       35.2275   33.9605    1.2081 H         1 UNK         0.0811 
    124 H124       36.1549   33.9451    2.6988 H         1 UNK         0.0811 
    125 H125       34.2978   32.8356    5.1469 H         1 UNK         0.3204 
    126 H126       34.9462   32.0641    7.0849 H         1 UNK         0.0748 
    127 H127       37.2609   30.6096    5.7046 H         1 UNK         0.0771 
    128 H128       37.2889   32.2916    6.2345 H         1 UNK         0.0771 
    129 H129       37.1377   30.9982    7.4111 H         1 UNK         0.0771 
    130 H130       33.6950   29.9584    4.8233 H         1 UNK         0.2980 
    131 H131       33.6818   27.5267    6.4083 H         1 UNK         0.0545 
    132 H132       31.8247   26.5975    7.5194 H         1 UNK         0.3459 
    133 H133       30.5458   27.6310    8.0966 H         1 UNK         0.3459 
    134 H134       32.1438   28.4063    3.9296 H         1 UNK         0.0616 
    135 H135       31.8909   26.8555    4.6637 H         1 UNK         0.0616 
    136 H136       34.3085   25.2211    5.1741 H         1 UNK         0.0634 
    137 H137       34.9911   24.7939    3.6282 H         1 UNK         0.0634 
@<TRIPOS>BOND
     1    1    2 1    
     2    1   72 1    
     3    1   73 1    
     4    1   74 1    
     5    2    3 2    
     6    2    4 am   BACKBONE|DICT|INTERRES
     7    4    5 1    
     8    4   75 1    
     9    5    6 1    
    10    5   35 1    
    11    5   76 1    
    12    6    7 1    
    13    6   77 1    
    14    6   78 1    
    15    7    8 1    
    16    8    9 1    
    17    8   79 1    
    18    8   80 1    
    19    9   10 ar   
    20    9   14 ar   
    21   10   11 ar   
    22   10   81 1    
    23   11   12 ar   
    24   11   71 1    
    25   12   13 ar   
    26   12   82 1    
    27   13   14 ar   
    28   13   15 1    
    29   14   83 1    
    30   15   16 1    
    31   15   84 1    
    32   15   85 1    
    33   16   17 1    
    34   17   18 1    
    35   17   86 1    
    36   17   87 1    
    37   18   19 1    
    38   18   37 1    
    39   18   88 1    
    40   19   20 am   BACKBONE|DICT|INTERRES
    41   19   89 1    
    42   20   21 2    
    43   20   22 1    
    44   22   23 1    
    45   22   24 1    
    46   22   90 1    
    47   23   91 1    
    48   23   92 1    
    49   23   93 1    
    50   24   25 am   BACKBONE|DICT|INTERRES
    51   24   94 1    
    52   25   26 2    
    53   25   27 1    
    54   27   28 1    
    55   27   29 1    
    56   27   95 1    
    57   28   96 1    
    58   28   97 1    
    59   28   98 1    
    60   29   30 am   BACKBONE|DICT|INTERRES
    61   29   99 1    
    62   30   31 2    
    63   30   32 1    
    64   32   33 1    
    65   32   34 1    
    66   32  100 1    
    67   33  101 1    
    68   33  102 1    
    69   33  103 1    
    70   34   35 am   BACKBONE|DICT|INTERRES
    71   34  104 1    
    72   35   36 2    
    73   37   38 2    
    74   37   39 am   BACKBONE|DICT|INTERRES
    75   39   40 1    
    76   39  105 1    
    77   40   41 1    
    78   40   42 1    
    79   40  106 1    
    80   41  107 1    
    81   41  108 1    
    82   41  109 1    
    83   42   43 2    
    84   42   44 am   BACKBONE|DICT|INTERRES
    85   44   45 1    
    86   44  110 1    
    87   45   46 1    
    88   45   47 1    
    89   45  111 1    
    90   46  112 1    
    91   46  113 1    
    92   46  114 1    
    93   47   48 2    
    94   47   49 am   BACKBONE|DICT|INTERRES
    95   49   50 1    
    96   49  115 1    
    97   50   51 1    
    98   50   52 1    
    99   50  116 1    
   100   51  117 1    
   101   51  118 1    
   102   51  119 1    
   103   52   53 2    
   104   52   54 am   BACKBONE|DICT|INTERRES
   105   54   55 1    
   106   54  120 1    
   107   55   56 1    
   108   55   57 1    
   109   55  121 1    
   110   56  122 1    
   111   56  123 1    
   112   56  124 1    
   113   57   58 2    
   114   57   59 am   BACKBONE|DICT|INTERRES
   115   59   60 1    
   116   59  125 1    
   117   60   61 1    
   118   60   62 1    
   119   60  126 1    
   120   61  127 1    
   121   61  128 1    
   122   61  129 1    
   123   62   63 2    
   124   62   64 am   BACKBONE|DICT|INTERRES
   125   64   65 1    
   126   64  130 1    
   127   65   66 1    
   128   65   69 1    
   129   65  131 1    
   130   66   67 am   BACKBONE|DICT|INTERRES
   131   66   68 2    
   132   67  132 1    
   133   67  133 1    
   134   69   70 1    
   135   69  134 1    
   136   69  135 1    
   137   70   71 1    
   138   71  136 1    
   139   71  137 1    
@<TRIPOS>SUBSTRUCTURE
     1 UNK         1 GROUP             0       ****    0 ROOT    
