@<TRIPOS>MOLECULE
3R136
137   139    1
SMALL
USER_CHARGES


@<TRIPOS>ATOM
      1 CA         33.2618   27.0953   -3.3869 C.3       0 UNK        -0.1979 
      2 C          32.1383   27.1136   -2.3616 C.2       0 UNK         0.4864 
      3 O          31.3989   28.0949   -2.2860 O.2       0 UNK        -0.5359 
      4 N          32.0056   26.0349   -1.5767 N.am      1 UNK        -0.4318 
      5 CA         31.0268   25.8969   -0.4896 C.3       1 UNK         0.0824 
      6 C6         31.2808   24.6354    0.3697 C.3       12 UNK        -0.0944 
      7 S7         32.9701   24.5603    1.0531 S.3       12 UNK        -0.2672 
      8 C8         32.8572   23.1088    2.1459 C.3       12 UNK         0.0333 
      9 C9         31.8296   23.3090    3.2497 C.ar      12 UNK        -0.0807 
     10 C10        32.1021   24.1705    4.3164 C.ar      12 UNK        -0.0894 
     11 C11        31.1533   24.3777    5.3257 C.ar      12 UNK        -0.0804 
     12 C12        29.9292   23.7068    5.2539 C.ar      12 UNK        -0.0824 
     13 C13        29.6324   22.8667    4.1766 C.ar      12 UNK        -0.0762 
     14 C14        30.5941   22.6582    3.1856 C.ar      12 UNK        -0.0782 
     15 C15        28.2645   22.2072    4.0646 C.3       12 UNK         0.0230 
     16 S16        27.1116   23.2063    3.0612 S.3       12 UNK        -0.2608 
     17 C17        26.8238   24.6390    4.1545 C.3       12 UNK        -0.0989 
     18 CA         27.5672   25.9116    3.6509 C.3       5 UNK         0.0716 
     19 N          26.9353   26.4912    2.4510 N.am      5 UNK        -0.4135 
     20 C          25.7170   27.0528    2.3860 C.2       4 UNK         0.5031 
     21 O          24.9803   27.2237    3.3572 O.2       4 UNK        -0.5229 
     22 CA         25.2478   27.5253    1.0045 C.3       4 UNK         0.0329 
     23 CB         26.0533   28.7491    0.5326 C.3       4 UNK        -0.2001 
     24 N          25.3159   26.4647    0.0007 N.am      4 UNK        -0.4303 
     25 C          24.5185   25.3842   -0.0365 C.2       3 UNK         0.5044 
     26 O          23.6470   25.1525    0.8022 O.2       3 UNK        -0.5152 
     27 CA         24.6798   24.4170   -1.2277 C.3       3 UNK         0.0319 
     28 CB         23.3743   24.3262   -2.0377 C.3       3 UNK        -0.2001 
     29 N          25.7595   24.8313   -2.1261 N.am      3 UNK        -0.4354 
     30 C          27.0305   24.4267   -2.0256 C.2       2 UNK         0.4964 
     31 O          27.4007   23.5121   -1.2868 O.2       2 UNK        -0.5047 
     32 CA         28.0676   25.1834   -2.8815 C.3       2 UNK         0.0288 
     33 CB         27.5798   26.5587   -3.3962 C.3       2 UNK        -0.2113 
     34 N          29.3467   25.3429   -2.1825 N.am      2 UNK        -0.4145 
     35 C          29.5630   25.8986   -0.9774 C.2       1 UNK         0.5006 
     36 O          28.6833   26.3820   -0.2564 O.2       1 UNK        -0.5103 
     37 C          27.8358   26.9196    4.8016 C.2       5 UNK         0.5055 
     38 O          28.2525   26.4983    5.8811 O.2       5 UNK        -0.5220 
     39 N          27.6293   28.2227    4.5723 N.am      6 UNK        -0.4450 
     40 CA         27.8156   29.2919    5.5596 C.3       6 UNK         0.0367 
     41 CB         26.5207   29.4716    6.3758 C.3       6 UNK        -0.1929 
     42 C          28.2767   30.6083    4.9094 C.2       6 UNK         0.5070 
     43 O          28.2375   31.6534    5.5601 O.2       6 UNK        -0.5237 
     44 N          28.6971   30.5473    3.6394 N.am      7 UNK        -0.4739 
     45 CA         29.2540   31.6740    2.8920 C.3       7 UNK         0.0276 
     46 CB         29.1088   31.3727    1.3893 C.3       7 UNK        -0.1927 
     47 C          30.7327   31.8950    3.2472 C.2       7 UNK         0.5013 
     48 O          31.3877   30.9829    3.7594 O.2       7 UNK        -0.5193 
     49 N          31.2686   33.0653    2.8753 N.am      8 UNK        -0.4253 
     50 CA         32.7020   33.3818    2.9601 C.3       8 UNK         0.0242 
     51 CB         32.9215   34.8600    2.5996 C.3       8 UNK        -0.2000 
     52 C          33.5827   32.4724    2.0785 C.2       8 UNK         0.4948 
     53 O          34.7475   32.2522    2.4085 O.2       8 UNK        -0.5275 
     54 N          32.9982   31.9391    0.9956 N.am      9 UNK        -0.4246 
     55 CA         33.5896   30.9151    0.1323 C.3       9 UNK         0.0261 
     56 CB         32.8871   30.9563   -1.2346 C.3       9 UNK        -0.1959 
     57 C          33.5273   29.4945    0.7324 C.2       9 UNK         0.5033 
     58 O          34.2101   28.6093    0.2151 O.2       9 UNK        -0.5390 
     59 N          32.7255   29.2962    1.7907 N.am      10 UNK        -0.4215 
     60 CA         32.6482   28.0661    2.5746 C.3       10 UNK         0.0240 
     61 CB         31.1698   27.7639    2.9220 C.3       10 UNK        -0.1982 
     62 C          33.5686   28.2210    3.7995 C.2       10 UNK         0.4970 
     63 O          34.7630   28.4718    3.6285 O.2       10 UNK        -0.4916 
     64 N          33.0127   28.0742    5.0068 N.am      11 UNK        -0.4279 
     65 CA         33.7232   28.2493    6.2834 C.3       11 UNK         0.1003 
     66 C          33.8488   29.7331    6.7383 C.2       11 UNK         0.5709 
     67 N          33.2121   30.7001    6.0860 N.am      11 UNK        -0.7358 
     68 O          34.5517   30.0162    7.7057 O.2       11 UNK        -0.4999 
     69 C69        33.1211   27.3628    7.4078 C.3       12 UNK        -0.0954 
     70 S70        33.1085   25.5896    6.9718 S.3       12 UNK        -0.2268 
     71 C71        31.3718   25.3858    6.4516 C.3       12 UNK         0.0203 
     72 H72        33.8001   26.1477   -3.3857 H         1 UNK         0.0888 
     73 H73        32.8611   27.2573   -4.3872 H         1 UNK         0.0888 
     74 H74        33.9749   27.8905   -3.1708 H         1 UNK         0.0888 
     75 H75        32.6637   25.2733   -1.6639 H         1 UNK         0.3017 
     76 H76        31.1494   26.7746    0.1447 H         1 UNK         0.0873 
     77 H77        30.5721   24.6179    1.1995 H         1 UNK         0.0745 
     78 H78        31.1036   23.7260   -0.2081 H         1 UNK         0.0745 
     79 H79        33.8357   22.9239    2.5913 H         1 UNK         0.0705 
     80 H80        32.6209   22.2269    1.5483 H         1 UNK         0.0705 
     81 H81        33.0452   24.6985    4.3370 H         1 UNK         0.1334 
     82 H82        29.1870   23.8770    6.0213 H         1 UNK         0.1417 
     83 H83        30.3675   22.0116    2.3485 H         1 UNK         0.1562 
     84 H84        27.8387   22.0336    5.0541 H         1 UNK         0.0748 
     85 H85        28.3675   21.2233    3.6044 H         1 UNK         0.0748 
     86 H86        27.1180   24.3611    5.1665 H         1 UNK         0.0940 
     87 H87        25.7494   24.8152    4.2190 H         1 UNK         0.0940 
     88 H88        28.5654   25.6080    3.3307 H         1 UNK         0.0703 
     89 H89        27.4637   26.3986    1.5895 H         1 UNK         0.3081 
     90 H90        24.2028   27.8297    1.0968 H         1 UNK         0.0719 
     91 H91        25.9999   29.5567    1.2640 H         1 UNK         0.0809 
     92 H92        27.1076   28.5160    0.3790 H         1 UNK         0.0809 
     93 H93        25.6607   29.1412   -0.4058 H         1 UNK         0.0809 
     94 H94        26.0405   26.5479   -0.6969 H         1 UNK         0.2990 
     95 H95        24.8941   23.4281   -0.8166 H         1 UNK         0.0690 
     96 H96        23.0836   25.2944   -2.4472 H         1 UNK         0.0788 
     97 H97        22.5502   23.9749   -1.4151 H         1 UNK         0.0788 
     98 H98        23.4709   23.6255   -2.8673 H         1 UNK         0.0788 
     99 H99        25.5409   25.5680   -2.7824 H         1 UNK         0.2993 
    100 H100       28.2646   24.5502   -3.7480 H         1 UNK         0.0949 
    101 H101       27.2953   27.2244   -2.5802 H         1 UNK         0.0767 
    102 H102       28.3641   27.0603   -3.9640 H         1 UNK         0.0767 
    103 H103       26.7252   26.4596   -4.0664 H         1 UNK         0.0767 
    104 H104       30.1498   24.9562   -2.6572 H         1 UNK         0.3013 
    105 H105       27.2211   28.4934    3.6898 H         1 UNK         0.3121 
    106 H106       28.6172   29.0094    6.2455 H         1 UNK         0.0774 
    107 H107       26.6386   30.2371    7.1437 H         1 UNK         0.0815 
    108 H108       25.6856   29.7685    5.7404 H         1 UNK         0.0815 
    109 H109       26.2418   28.5488    6.8847 H         1 UNK         0.0815 
    110 H110       28.7848   29.6415    3.2075 H         1 UNK         0.2987 
    111 H111       28.6946   32.5808    3.1333 H         1 UNK         0.0949 
    112 H112       29.4644   32.2049    0.7806 H         1 UNK         0.0806 
    113 H113       29.6733   30.4867    1.0940 H         1 UNK         0.0806 
    114 H114       28.0657   31.2078    1.1190 H         1 UNK         0.0806 
    115 H115       30.6723   33.7688    2.4623 H         1 UNK         0.3010 
    116 H116       33.0152   33.2304    3.9955 H         1 UNK         0.0829 
    117 H117       32.3708   35.5189    3.2712 H         1 UNK         0.0813 
    118 H118       33.9761   35.1279    2.6799 H         1 UNK         0.0813 
    119 H119       32.6069   35.0794    1.5786 H         1 UNK         0.0813 
    120 H120       32.0493   32.2111    0.7864 H         1 UNK         0.3038 
    121 H121       34.6439   31.1567   -0.0195 H         1 UNK         0.0769 
    122 H122       32.9702   31.9398   -1.6973 H         1 UNK         0.0811 
    123 H123       33.3334   30.2377   -1.9234 H         1 UNK         0.0811 
    124 H124       31.8279   30.7085   -1.1525 H         1 UNK         0.0811 
    125 H125       32.2749   30.0985    2.2162 H         1 UNK         0.3204 
    126 H126       33.0342   27.2336    1.9873 H         1 UNK         0.0748 
    127 H127       30.5346   27.8029    2.0384 H         1 UNK         0.0771 
    128 H128       31.0666   26.7630    3.3427 H         1 UNK         0.0771 
    129 H129       30.7539   28.4700    3.6394 H         1 UNK         0.0771 
    130 H130       32.0234   27.8945    5.0684 H         1 UNK         0.2980 
    131 H131       34.7502   27.9088    6.1377 H         1 UNK         0.0545 
    132 H132       32.6253   30.5104    5.2817 H         1 UNK         0.3459 
    133 H133       33.3178   31.6477    6.4087 H         1 UNK         0.3459 
    134 H134       33.7091   27.4624    8.3220 H         1 UNK         0.0616 
    135 H135       32.1122   27.6911    7.6642 H         1 UNK         0.0616 
    136 H136       30.9762   26.3417    6.1091 H         1 UNK         0.0634 
    137 H137       30.7859   25.1091    7.3294 H         1 UNK         0.0634 
@<TRIPOS>BOND
     1    1    2 1    
     2    1   72 1    
     3    1   73 1    
     4    1   74 1    
     5    2    3 2    
     6    2    4 am   BACKBONE|DICT|INTERRES
     7    4    5 1    
     8    4   75 1    
     9    5    6 1    
    10    5   35 1    
    11    5   76 1    
    12    6    7 1    
    13    6   77 1    
    14    6   78 1    
    15    7    8 1    
    16    8    9 1    
    17    8   79 1    
    18    8   80 1    
    19    9   10 ar   
    20    9   14 ar   
    21   10   11 ar   
    22   10   81 1    
    23   11   12 ar   
    24   11   71 1    
    25   12   13 ar   
    26   12   82 1    
    27   13   14 ar   
    28   13   15 1    
    29   14   83 1    
    30   15   16 1    
    31   15   84 1    
    32   15   85 1    
    33   16   17 1    
    34   17   18 1    
    35   17   86 1    
    36   17   87 1    
    37   18   19 1    
    38   18   37 1    
    39   18   88 1    
    40   19   20 am   BACKBONE|DICT|INTERRES
    41   19   89 1    
    42   20   21 2    
    43   20   22 1    
    44   22   23 1    
    45   22   24 1    
    46   22   90 1    
    47   23   91 1    
    48   23   92 1    
    49   23   93 1    
    50   24   25 am   BACKBONE|DICT|INTERRES
    51   24   94 1    
    52   25   26 2    
    53   25   27 1    
    54   27   28 1    
    55   27   29 1    
    56   27   95 1    
    57   28   96 1    
    58   28   97 1    
    59   28   98 1    
    60   29   30 am   BACKBONE|DICT|INTERRES
    61   29   99 1    
    62   30   31 2    
    63   30   32 1    
    64   32   33 1    
    65   32   34 1    
    66   32  100 1    
    67   33  101 1    
    68   33  102 1    
    69   33  103 1    
    70   34   35 am   BACKBONE|DICT|INTERRES
    71   34  104 1    
    72   35   36 2    
    73   37   38 2    
    74   37   39 am   BACKBONE|DICT|INTERRES
    75   39   40 1    
    76   39  105 1    
    77   40   41 1    
    78   40   42 1    
    79   40  106 1    
    80   41  107 1    
    81   41  108 1    
    82   41  109 1    
    83   42   43 2    
    84   42   44 am   BACKBONE|DICT|INTERRES
    85   44   45 1    
    86   44  110 1    
    87   45   46 1    
    88   45   47 1    
    89   45  111 1    
    90   46  112 1    
    91   46  113 1    
    92   46  114 1    
    93   47   48 2    
    94   47   49 am   BACKBONE|DICT|INTERRES
    95   49   50 1    
    96   49  115 1    
    97   50   51 1    
    98   50   52 1    
    99   50  116 1    
   100   51  117 1    
   101   51  118 1    
   102   51  119 1    
   103   52   53 2    
   104   52   54 am   BACKBONE|DICT|INTERRES
   105   54   55 1    
   106   54  120 1    
   107   55   56 1    
   108   55   57 1    
   109   55  121 1    
   110   56  122 1    
   111   56  123 1    
   112   56  124 1    
   113   57   58 2    
   114   57   59 am   BACKBONE|DICT|INTERRES
   115   59   60 1    
   116   59  125 1    
   117   60   61 1    
   118   60   62 1    
   119   60  126 1    
   120   61  127 1    
   121   61  128 1    
   122   61  129 1    
   123   62   63 2    
   124   62   64 am   BACKBONE|DICT|INTERRES
   125   64   65 1    
   126   64  130 1    
   127   65   66 1    
   128   65   69 1    
   129   65  131 1    
   130   66   67 am   BACKBONE|DICT|INTERRES
   131   66   68 2    
   132   67  132 1    
   133   67  133 1    
   134   69   70 1    
   135   69  134 1    
   136   69  135 1    
   137   70   71 1    
   138   71  136 1    
   139   71  137 1    
@<TRIPOS>SUBSTRUCTURE
     1 UNK         1 GROUP             0       ****    0 ROOT    
