@<TRIPOS>MOLECULE
3R136
137   139    1
SMALL
USER_CHARGES


@<TRIPOS>ATOM
      1 CA         30.0088   21.4229    4.0977 C.3       0 UNK        -0.1979 
      2 C          29.2529   21.4693    2.7780 C.2       0 UNK         0.4864 
      3 O          28.2623   20.7553    2.6121 O.2       0 UNK        -0.5359 
      4 N          29.7087   22.3059    1.8373 N.am      1 UNK        -0.4318 
      5 CA         29.0745   22.5330    0.5386 C.3       1 UNK         0.0824 
      6 C6         30.0779   23.0798   -0.5065 C.3       12 UNK        -0.0944 
      7 S7         31.3772   21.8828   -0.9801 S.3       12 UNK        -0.2672 
      8 C8         32.6775   22.0662    0.2947 C.3       12 UNK         0.0333 
      9 C9         32.9131   23.5065    0.7321 C.ar      12 UNK        -0.0807 
     10 C10        32.7670   23.8610    2.0767 C.ar      12 UNK        -0.0894 
     11 C11        32.9235   25.1883    2.4833 C.ar      12 UNK        -0.0804 
     12 C12        33.2397   26.1641    1.5339 C.ar      12 UNK        -0.0824 
     13 C13        33.3996   25.8214    0.1875 C.ar      12 UNK        -0.0762 
     14 C14        33.2505   24.4884   -0.2050 C.ar      12 UNK        -0.0782 
     15 C15        33.7281   26.8887   -0.8471 C.3       12 UNK         0.0230 
     16 S16        32.2730   27.3470   -1.8465 S.3       12 UNK        -0.2608 
     17 C17        31.1963   28.1444   -0.6081 C.3       12 UNK        -0.0989 
     18 CA         29.8467   27.3871   -0.4039 C.3       5 UNK         0.0716 
     19 N          29.4980   27.1288    1.0006 N.am      5 UNK        -0.4135 
     20 C          29.5438   27.9876    2.0268 C.2       4 UNK         0.5031 
     21 O          29.9298   29.1556    1.9316 O.2       4 UNK        -0.5229 
     22 CA         29.0103   27.4594    3.3719 C.3       4 UNK         0.0329 
     23 CB         29.2077   28.4739    4.5165 C.3       4 UNK        -0.2001 
     24 N          27.6016   27.0445    3.3084 N.am      4 UNK        -0.4303 
     25 C          26.5568   27.7682    2.8794 C.2       3 UNK         0.5044 
     26 O          26.6596   28.8892    2.3820 O.2       3 UNK        -0.5152 
     27 CA         25.1680   27.1102    2.9934 C.3       3 UNK         0.0319 
     28 CB         24.0261   28.0811    2.6366 C.3       3 UNK        -0.2001 
     29 N          25.0639   25.9298    2.1358 N.am      3 UNK        -0.4354 
     30 C          25.5892   24.7272    2.4005 C.2       2 UNK         0.4964 
     31 O          26.1855   24.4647    3.4480 O.2       2 UNK        -0.5047 
     32 CA         25.4511   23.6392    1.3151 C.3       2 UNK         0.0288 
     33 CB         24.8671   24.1490   -0.0239 C.3       2 UNK        -0.2113 
     34 N          26.7200   22.9424    1.0745 N.am      2 UNK        -0.4145 
     35 C          27.8915   23.4992    0.7330 C.2       1 UNK         0.5006 
     36 O          28.0722   24.7135    0.6059 O.2       1 UNK        -0.5103 
     37 C          28.6844   28.0208   -1.2055 C.2       5 UNK         0.5055 
     38 O          28.8087   28.1581   -2.4229 O.2       5 UNK        -0.5220 
     39 N          27.5836   28.3815   -0.5253 N.am      6 UNK        -0.4450 
     40 CA         26.3869   29.0689   -1.0266 C.3       6 UNK         0.0367 
     41 CB         25.5418   28.1013   -1.8813 C.3       6 UNK        -0.1929 
     42 C          26.7036   30.3971   -1.7564 C.2       6 UNK         0.5070 
     43 O          26.4497   30.5012   -2.9561 O.2       6 UNK        -0.5237 
     44 N          27.2538   31.4173   -1.0831 N.am      7 UNK        -0.4739 
     45 CA         27.6218   31.4918    0.3290 C.3       7 UNK         0.0276 
     46 CB         26.4640   32.0889    1.1478 C.3       7 UNK        -0.1927 
     47 C          28.8900   32.3410    0.4354 C.2       7 UNK         0.5013 
     48 O          28.8491   33.5288    0.1082 O.2       7 UNK        -0.5193 
     49 N          29.9873   31.7169    0.8760 N.am      8 UNK        -0.4253 
     50 CA         31.2667   32.3713    1.1551 C.3       8 UNK         0.0242 
     51 CB         32.4084   31.4500    0.6902 C.3       8 UNK        -0.2000 
     52 C          31.4289   32.6954    2.6500 C.2       8 UNK         0.4948 
     53 O          32.3071   33.4875    2.9919 O.2       8 UNK        -0.5275 
     54 N          30.6110   32.0606    3.5086 N.am      9 UNK        -0.4246 
     55 CA         30.6459   32.1125    4.9790 C.3       9 UNK         0.0261 
     56 CB         30.3241   33.5307    5.4969 C.3       9 UNK        -0.1959 
     57 C          31.9466   31.5331    5.5773 C.2       9 UNK         0.5033 
     58 O          32.3522   31.9240    6.6740 O.2       9 UNK        -0.5390 
     59 N          32.5706   30.6054    4.8414 N.am      10 UNK        -0.4215 
     60 CA         33.7689   29.8661    5.2310 C.3       10 UNK         0.0240 
     61 CB         34.5054   29.4461    3.9460 C.3       10 UNK        -0.1982 
     62 C          33.4166   28.6441    6.0988 C.2       10 UNK         0.4970 
     63 O          32.2385   28.3602    6.3250 O.2       10 UNK        -0.4916 
     64 N          34.4566   27.9281    6.5431 N.am      11 UNK        -0.4279 
     65 CA         34.3821   26.6833    7.3319 C.3       11 UNK         0.1003 
     66 C          33.9180   26.8733    8.8090 C.2       11 UNK         0.5709 
     67 N          33.8603   28.0907    9.3361 N.am      11 UNK        -0.7358 
     68 O          33.6394   25.8994    9.5052 O.2       11 UNK        -0.4999 
     69 C69        33.6151   25.5308    6.6140 C.3       12 UNK        -0.0954 
     70 S70        34.2175   25.1854    4.9245 S.3       12 UNK        -0.2268 
     71 C71        32.7316   25.5617    3.9449 C.3       12 UNK         0.0203 
     72 H72        29.3110   21.4947    4.9315 H         1 UNK         0.0888 
     73 H73        30.5505   20.4817    4.1867 H         1 UNK         0.0888 
     74 H74        30.7234   22.2401    4.1892 H         1 UNK         0.0888 
     75 H75        30.5111   22.8872    2.0270 H         1 UNK         0.3017 
     76 H76        28.6821   21.5868    0.1589 H         1 UNK         0.0873 
     77 H77        30.5203   24.0184   -0.1733 H         1 UNK         0.0745 
     78 H78        29.5465   23.3290   -1.4271 H         1 UNK         0.0745 
     79 H79        33.6104   21.6575   -0.0955 H         1 UNK         0.0705 
     80 H80        32.4096   21.4425    1.1489 H         1 UNK         0.0705 
     81 H81        32.5341   23.1057    2.8141 H         1 UNK         0.1334 
     82 H82        33.3558   27.1927    1.8399 H         1 UNK         0.1417 
     83 H83        33.3609   24.2202   -1.2472 H         1 UNK         0.1562 
     84 H84        34.5090   26.5180   -1.5127 H         1 UNK         0.0748 
     85 H85        34.1361   27.7813   -0.3698 H         1 UNK         0.0748 
     86 H86        31.7537   28.2107    0.3243 H         1 UNK         0.0940 
     87 H87        31.0335   29.1819   -0.9057 H         1 UNK         0.0940 
     88 H88        29.9538   26.3847   -0.8211 H         1 UNK         0.0703 
     89 H89        29.0752   26.2141    1.1481 H         1 UNK         0.3081 
     90 H90        29.5942   26.5693    3.6111 H         1 UNK         0.0719 
     91 H91        28.9158   28.0501    5.4772 H         1 UNK         0.0809 
     92 H92        28.6248   29.3819    4.3590 H         1 UNK         0.0809 
     93 H93        30.2538   28.7667    4.5997 H         1 UNK         0.0809 
     94 H94        27.3976   26.1007    3.6236 H         1 UNK         0.2990 
     95 H95        25.0347   26.8073    4.0342 H         1 UNK         0.0690 
     96 H96        23.0506   27.6189    2.7885 H         1 UNK         0.0788 
     97 H97        24.0829   28.4115    1.5987 H         1 UNK         0.0788 
     98 H98        24.0616   28.9726    3.2644 H         1 UNK         0.0788 
     99 H99        24.6186   26.0638    1.2398 H         1 UNK         0.2993 
    100 H100       24.7614   22.8973    1.7204 H         1 UNK         0.0949 
    101 H101       25.4958   24.9156   -0.4785 H         1 UNK         0.0767 
    102 H102       24.7768   23.3345   -0.7429 H         1 UNK         0.0767 
    103 H103       23.8665   24.5636    0.1055 H         1 UNK         0.0767 
    104 H104       26.7183   21.9486    1.2680 H         1 UNK         0.3013 
    105 H105       27.5976   28.2536    0.4787 H         1 UNK         0.3121 
    106 H106       25.7861   29.3308   -0.1553 H         1 UNK         0.0774 
    107 H107       24.6201   28.5791   -2.2154 H         1 UNK         0.0815 
    108 H108       26.0785   27.7708   -2.7712 H         1 UNK         0.0815 
    109 H109       25.2588   27.2163   -1.3129 H         1 UNK         0.0815 
    110 H110       27.4837   32.2544   -1.6023 H         1 UNK         0.2987 
    111 H111       27.8492   30.5129    0.7411 H         1 UNK         0.0949 
    112 H112       26.1784   33.0778    0.7870 H         1 UNK         0.0806 
    113 H113       25.5810   31.4509    1.1132 H         1 UNK         0.0806 
    114 H114       26.7439   32.1898    2.1972 H         1 UNK         0.0806 
    115 H115       29.9299   30.7303    1.1319 H         1 UNK         0.3010 
    116 H116       31.3382   33.3112    0.6034 H         1 UNK         0.0829 
    117 H117       32.3460   31.2519   -0.3798 H         1 UNK         0.0813 
    118 H118       33.3810   31.9080    0.8758 H         1 UNK         0.0813 
    119 H119       32.3952   30.4924    1.2118 H         1 UNK         0.0813 
    120 H120       29.9367   31.4193    3.1134 H         1 UNK         0.3038 
    121 H121       29.8463   31.4545    5.3220 H         1 UNK         0.0769 
    122 H122       31.1208   34.2382    5.2656 H         1 UNK         0.0811 
    123 H123       29.3997   33.9117    5.0630 H         1 UNK         0.0811 
    124 H124       30.1965   33.5314    6.5800 H         1 UNK         0.0811 
    125 H125       32.1344   30.3264    3.9760 H         1 UNK         0.3204 
    126 H126       34.4207   30.5211    5.8132 H         1 UNK         0.0748 
    127 H127       35.4473   28.9424    4.1659 H         1 UNK         0.0771 
    128 H128       33.9034   28.7648    3.3470 H         1 UNK         0.0771 
    129 H129       34.7444   30.3114    3.3268 H         1 UNK         0.0771 
    130 H130       35.3909   28.2393    6.3209 H         1 UNK         0.2980 
    131 H131       35.4180   26.3553    7.4227 H         1 UNK         0.0545 
    132 H132       34.0902   28.8998    8.7823 H         1 UNK         0.3459 
    133 H133       33.5711   28.1994   10.2953 H         1 UNK         0.3459 
    134 H134       33.7189   24.6031    7.1791 H         1 UNK         0.0616 
    135 H135       32.5450   25.7414    6.5895 H         1 UNK         0.0616 
    136 H136       31.8806   25.0128    4.3513 H         1 UNK         0.0634 
    137 H137       32.4899   26.6209    4.0411 H         1 UNK         0.0634 
@<TRIPOS>BOND
     1    1    2 1    
     2    1   72 1    
     3    1   73 1    
     4    1   74 1    
     5    2    3 2    
     6    2    4 am   BACKBONE|DICT|INTERRES
     7    4    5 1    
     8    4   75 1    
     9    5    6 1    
    10    5   35 1    
    11    5   76 1    
    12    6    7 1    
    13    6   77 1    
    14    6   78 1    
    15    7    8 1    
    16    8    9 1    
    17    8   79 1    
    18    8   80 1    
    19    9   10 ar   
    20    9   14 ar   
    21   10   11 ar   
    22   10   81 1    
    23   11   12 ar   
    24   11   71 1    
    25   12   13 ar   
    26   12   82 1    
    27   13   14 ar   
    28   13   15 1    
    29   14   83 1    
    30   15   16 1    
    31   15   84 1    
    32   15   85 1    
    33   16   17 1    
    34   17   18 1    
    35   17   86 1    
    36   17   87 1    
    37   18   19 1    
    38   18   37 1    
    39   18   88 1    
    40   19   20 am   BACKBONE|DICT|INTERRES
    41   19   89 1    
    42   20   21 2    
    43   20   22 1    
    44   22   23 1    
    45   22   24 1    
    46   22   90 1    
    47   23   91 1    
    48   23   92 1    
    49   23   93 1    
    50   24   25 am   BACKBONE|DICT|INTERRES
    51   24   94 1    
    52   25   26 2    
    53   25   27 1    
    54   27   28 1    
    55   27   29 1    
    56   27   95 1    
    57   28   96 1    
    58   28   97 1    
    59   28   98 1    
    60   29   30 am   BACKBONE|DICT|INTERRES
    61   29   99 1    
    62   30   31 2    
    63   30   32 1    
    64   32   33 1    
    65   32   34 1    
    66   32  100 1    
    67   33  101 1    
    68   33  102 1    
    69   33  103 1    
    70   34   35 am   BACKBONE|DICT|INTERRES
    71   34  104 1    
    72   35   36 2    
    73   37   38 2    
    74   37   39 am   BACKBONE|DICT|INTERRES
    75   39   40 1    
    76   39  105 1    
    77   40   41 1    
    78   40   42 1    
    79   40  106 1    
    80   41  107 1    
    81   41  108 1    
    82   41  109 1    
    83   42   43 2    
    84   42   44 am   BACKBONE|DICT|INTERRES
    85   44   45 1    
    86   44  110 1    
    87   45   46 1    
    88   45   47 1    
    89   45  111 1    
    90   46  112 1    
    91   46  113 1    
    92   46  114 1    
    93   47   48 2    
    94   47   49 am   BACKBONE|DICT|INTERRES
    95   49   50 1    
    96   49  115 1    
    97   50   51 1    
    98   50   52 1    
    99   50  116 1    
   100   51  117 1    
   101   51  118 1    
   102   51  119 1    
   103   52   53 2    
   104   52   54 am   BACKBONE|DICT|INTERRES
   105   54   55 1    
   106   54  120 1    
   107   55   56 1    
   108   55   57 1    
   109   55  121 1    
   110   56  122 1    
   111   56  123 1    
   112   56  124 1    
   113   57   58 2    
   114   57   59 am   BACKBONE|DICT|INTERRES
   115   59   60 1    
   116   59  125 1    
   117   60   61 1    
   118   60   62 1    
   119   60  126 1    
   120   61  127 1    
   121   61  128 1    
   122   61  129 1    
   123   62   63 2    
   124   62   64 am   BACKBONE|DICT|INTERRES
   125   64   65 1    
   126   64  130 1    
   127   65   66 1    
   128   65   69 1    
   129   65  131 1    
   130   66   67 am   BACKBONE|DICT|INTERRES
   131   66   68 2    
   132   67  132 1    
   133   67  133 1    
   134   69   70 1    
   135   69  134 1    
   136   69  135 1    
   137   70   71 1    
   138   71  136 1    
   139   71  137 1    
@<TRIPOS>SUBSTRUCTURE
     1 UNK         1 GROUP             0       ****    0 ROOT    
