@<TRIPOS>MOLECULE
3R136
137   139    1
SMALL
USER_CHARGES


@<TRIPOS>ATOM
      1 CA         27.8610   21.6306    1.1253 C.3       0 UNK        -0.1979 
      2 C          28.0828   22.6039   -0.0220 C.2       0 UNK         0.4864 
      3 O          27.2966   22.6229   -0.9707 O.2       0 UNK        -0.5359 
      4 N          29.1416   23.4207    0.0528 N.am      1 UNK        -0.4318 
      5 CA         29.4536   24.4610   -0.9293 C.3       1 UNK         0.0824 
      6 C6         30.8932   24.9945   -0.7696 C.3       12 UNK        -0.0944 
      7 S7         32.1759   23.8155   -1.3198 S.3       12 UNK        -0.2672 
      8 C8         32.3819   22.6587    0.0793 C.3       12 UNK         0.0333 
      9 C9         32.4190   23.3304    1.4468 C.ar      12 UNK        -0.0807 
     10 C10        33.2627   24.4192    1.6915 C.ar      12 UNK        -0.0894 
     11 C11        33.2732   25.0438    2.9416 C.ar      12 UNK        -0.0804 
     12 C12        32.4474   24.5575    3.9600 C.ar      12 UNK        -0.0824 
     13 C13        31.6044   23.4656    3.7296 C.ar      12 UNK        -0.0762 
     14 C14        31.6037   22.8506    2.4756 C.ar      12 UNK        -0.0782 
     15 C15        30.6998   22.9359    4.8334 C.3       12 UNK         0.0230 
     16 S16        28.9491   23.3495    4.5394 S.3       12 UNK        -0.2608 
     17 C17        28.9542   25.1599    4.7573 C.3       12 UNK        -0.0989 
     18 CA         28.4533   25.9043    3.4876 C.3       5 UNK         0.0716 
     19 N          27.0431   25.6518    3.1426 N.am      5 UNK        -0.4135 
     20 C          25.9757   25.9295    3.9119 C.2       4 UNK         0.5031 
     21 O          26.0507   26.2760    5.0913 O.2       4 UNK        -0.5229 
     22 CA         24.5748   25.8605    3.2759 C.3       4 UNK         0.0329 
     23 CB         23.8676   27.2240    3.3789 C.3       4 UNK        -0.2001 
     24 N          24.5694   25.4557    1.8712 N.am      4 UNK        -0.4303 
     25 C          24.4867   24.1997    1.4247 C.2       3 UNK         0.5044 
     26 O          24.5095   23.2113    2.1577 O.2       3 UNK        -0.5152 
     27 CA         24.3465   24.0089   -0.0962 C.3       3 UNK         0.0319 
     28 CB         22.8853   24.1983   -0.5480 C.3       3 UNK        -0.2001 
     29 N          25.2736   24.8164   -0.9026 N.am      3 UNK        -0.4354 
     30 C          25.3311   26.1495   -1.0667 C.2       2 UNK         0.4964 
     31 O          24.5494   26.9367   -0.5306 O.2       2 UNK        -0.5047 
     32 CA         26.4763   26.6902   -1.9519 C.3       2 UNK         0.0288 
     33 CB         26.8116   28.1702   -1.6620 C.3       2 UNK        -0.2113 
     34 N          27.6797   25.8480   -1.8920 N.am      2 UNK        -0.4145 
     35 C          28.4173   25.5936   -0.8013 C.2       1 UNK         0.5006 
     36 O          28.2743   26.1690    0.2820 O.2       1 UNK        -0.5103 
     37 C          28.6703   27.4291    3.5620 C.2       5 UNK         0.5055 
     38 O          28.9761   27.9619    4.6296 O.2       5 UNK        -0.5220 
     39 N          28.4258   28.1070    2.4330 N.am      6 UNK        -0.4450 
     40 CA         28.3113   29.5661    2.3596 C.3       6 UNK         0.0367 
     41 CB         26.8330   29.9598    2.5499 C.3       6 UNK        -0.1929 
     42 C          28.9018   30.1561    1.0688 C.2       6 UNK         0.5070 
     43 O          28.5975   31.3038    0.7418 O.2       6 UNK        -0.5237 
     44 N          29.7314   29.3878    0.3476 N.am      7 UNK        -0.4739 
     45 CA         30.3737   29.8307   -0.8979 C.3       7 UNK         0.0276 
     46 CB         30.9250   28.6134   -1.6499 C.3       7 UNK        -0.1927 
     47 C          31.4830   30.8795   -0.6934 C.2       7 UNK         0.5013 
     48 O          31.8061   31.6026   -1.6369 O.2       7 UNK        -0.5193 
     49 N          32.0400   30.9480    0.5196 N.am      8 UNK        -0.4253 
     50 CA         33.0225   31.9334    0.9522 C.3       8 UNK         0.0242 
     51 CB         34.4408   31.3673    0.7621 C.3       8 UNK        -0.2000 
     52 C          32.7528   32.2502    2.4246 C.2       8 UNK         0.4948 
     53 O          32.2157   31.4014    3.1402 O.2       8 UNK        -0.5275 
     54 N          33.1724   33.4428    2.8675 N.am      9 UNK        -0.4246 
     55 CA         33.0113   33.9308    4.2445 C.3       9 UNK         0.0261 
     56 CB         33.4446   35.4048    4.3117 C.3       9 UNK        -0.1959 
     57 C          33.7600   33.1008    5.3061 C.2       9 UNK         0.5033 
     58 O          33.3892   33.1483    6.4795 O.2       9 UNK        -0.5390 
     59 N          34.7894   32.3565    4.8800 N.am      10 UNK        -0.4215 
     60 CA         35.5413   31.4130    5.7066 C.3       10 UNK         0.0240 
     61 CB         36.8660   31.0785    5.0005 C.3       10 UNK        -0.1982 
     62 C          34.7660   30.1204    6.0259 C.2       10 UNK         0.4970 
     63 O          35.1140   29.4534    7.0015 O.2       10 UNK        -0.4916 
     64 N          33.7636   29.7686    5.2080 N.am      11 UNK        -0.4279 
     65 CA         32.9373   28.5686    5.3923 C.3       11 UNK         0.1003 
     66 C          31.8924   28.7498    6.5261 C.2       11 UNK         0.5709 
     67 N          31.5824   27.6873    7.2582 N.am      11 UNK        -0.7358 
     68 O          31.3497   29.8326    6.7386 O.2       11 UNK        -0.4999 
     69 C69        32.2607   28.1172    4.0709 C.3       12 UNK        -0.0954 
     70 S70        33.4373   27.8153    2.7085 S.3       12 UNK        -0.2268 
     71 C71        34.1953   26.2286    3.1902 C.3       12 UNK         0.0203 
     72 H72        28.5898   21.7643    1.9230 H         1 UNK         0.0888 
     73 H73        26.8683   21.7740    1.5511 H         1 UNK         0.0888 
     74 H74        27.9330   20.6046    0.7659 H         1 UNK         0.0888 
     75 H75        29.7417   23.3979    0.8636 H         1 UNK         0.3017 
     76 H76        29.3662   24.0211   -1.9255 H         1 UNK         0.0873 
     77 H77        31.0807   25.3409    0.2476 H         1 UNK         0.0745 
     78 H78        31.0304   25.8653   -1.4073 H         1 UNK         0.0745 
     79 H79        31.5797   21.9210    0.0318 H         1 UNK         0.0705 
     80 H80        33.3101   22.1039   -0.0628 H         1 UNK         0.0705 
     81 H81        33.9006   24.7914    0.9012 H         1 UNK         0.1334 
     82 H82        32.4624   25.0294    4.9323 H         1 UNK         0.1417 
     83 H83        30.9655   21.9941    2.3076 H         1 UNK         0.1562 
     84 H84        31.0047   23.3202    5.8081 H         1 UNK         0.0748 
     85 H85        30.7998   21.8510    4.8908 H         1 UNK         0.0748 
     86 H86        29.9644   25.4856    5.0072 H         1 UNK         0.0940 
     87 H87        28.3538   25.4074    5.6329 H         1 UNK         0.0940 
     88 H88        29.0580   25.5490    2.6523 H         1 UNK         0.0703 
     89 H89        26.8751   25.3990    2.1794 H         1 UNK         0.3081 
     90 H90        23.9977   25.1379    3.8568 H         1 UNK         0.0719 
     91 H91        23.8006   27.5592    4.4149 H         1 UNK         0.0809 
     92 H92        24.3978   27.9955    2.8195 H         1 UNK         0.0809 
     93 H93        22.8492   27.1719    2.9934 H         1 UNK         0.0809 
     94 H94        24.5388   26.1958    1.1728 H         1 UNK         0.2990 
     95 H95        24.6144   22.9711   -0.3015 H         1 UNK         0.0690 
     96 H96        22.7700   23.9910   -1.6119 H         1 UNK         0.0788 
     97 H97        22.5251   25.2106   -0.3627 H         1 UNK         0.0788 
     98 H98        22.2226   23.5176   -0.0118 H         1 UNK         0.0788 
     99 H99        26.0100   24.2641   -1.3297 H         1 UNK         0.2993 
    100 H100       26.1119   26.6319   -2.9787 H         1 UNK         0.0949 
    101 H101       27.0794   28.3304   -0.6181 H         1 UNK         0.0767 
    102 H102       27.6387   28.5202   -2.2792 H         1 UNK         0.0767 
    103 H103       25.9561   28.8122   -1.8749 H         1 UNK         0.0767 
    104 H104       27.8776   25.3217   -2.7326 H         1 UNK         0.3013 
    105 H105       28.2062   27.5792    1.5901 H         1 UNK         0.3121 
    106 H106       28.8900   30.0174    3.1687 H         1 UNK         0.0774 
    107 H107       26.2091   29.5685    1.7454 H         1 UNK         0.0815 
    108 H108       26.4404   29.5816    3.4940 H         1 UNK         0.0815 
    109 H109       26.7093   31.0434    2.5640 H         1 UNK         0.0815 
    110 H110       29.9514   28.4590    0.6772 H         1 UNK         0.2987 
    111 H111       29.6097   30.2952   -1.5258 H         1 UNK         0.0949 
    112 H112       30.1244   27.9236   -1.9135 H         1 UNK         0.0806 
    113 H113       31.4069   28.9133   -2.5816 H         1 UNK         0.0806 
    114 H114       31.6686   28.0803   -1.0562 H         1 UNK         0.0806 
    115 H115       31.6848   30.3590    1.2622 H         1 UNK         0.3010 
    116 H116       32.9079   32.8515    0.3715 H         1 UNK         0.0829 
    117 H117       34.5947   30.4608    1.3493 H         1 UNK         0.0813 
    118 H118       35.1988   32.0896    1.0670 H         1 UNK         0.0813 
    119 H119       34.6309   31.1224   -0.2831 H         1 UNK         0.0813 
    120 H120       33.6145   34.0758    2.2153 H         1 UNK         0.3038 
    121 H121       31.9484   33.8756    4.4894 H         1 UNK         0.0769 
    122 H122       32.8544   36.0244    3.6363 H         1 UNK         0.0811 
    123 H123       34.4966   35.5293    4.0519 H         1 UNK         0.0811 
    124 H124       33.3081   35.8065    5.3169 H         1 UNK         0.0811 
    125 H125       35.0320   32.4000    3.9016 H         1 UNK         0.3204 
    126 H126       35.7732   31.8989    6.6569 H         1 UNK         0.0748 
    127 H127       36.6998   30.5930    4.0378 H         1 UNK         0.0771 
    128 H128       37.4621   31.9749    4.8279 H         1 UNK         0.0771 
    129 H129       37.4710   30.4018    5.6060 H         1 UNK         0.0771 
    130 H130       33.4686   30.3913    4.4653 H         1 UNK         0.2980 
    131 H131       33.6046   27.7646    5.7061 H         1 UNK         0.0545 
    132 H132       32.0277   26.7968    7.1086 H         1 UNK         0.3459 
    133 H133       30.8950   27.7864    7.9883 H         1 UNK         0.3459 
    134 H134       31.5514   28.8750    3.7345 H         1 UNK         0.0616 
    135 H135       31.6736   27.2132    4.2283 H         1 UNK         0.0616 
    136 H136       35.1124   26.1001    2.6135 H         1 UNK         0.0634 
    137 H137       34.5059   26.2600    4.2345 H         1 UNK         0.0634 
@<TRIPOS>BOND
     1    1    2 1    
     2    1   72 1    
     3    1   73 1    
     4    1   74 1    
     5    2    3 2    
     6    2    4 am   BACKBONE|DICT|INTERRES
     7    4    5 1    
     8    4   75 1    
     9    5    6 1    
    10    5   35 1    
    11    5   76 1    
    12    6    7 1    
    13    6   77 1    
    14    6   78 1    
    15    7    8 1    
    16    8    9 1    
    17    8   79 1    
    18    8   80 1    
    19    9   10 ar   
    20    9   14 ar   
    21   10   11 ar   
    22   10   81 1    
    23   11   12 ar   
    24   11   71 1    
    25   12   13 ar   
    26   12   82 1    
    27   13   14 ar   
    28   13   15 1    
    29   14   83 1    
    30   15   16 1    
    31   15   84 1    
    32   15   85 1    
    33   16   17 1    
    34   17   18 1    
    35   17   86 1    
    36   17   87 1    
    37   18   19 1    
    38   18   37 1    
    39   18   88 1    
    40   19   20 am   BACKBONE|DICT|INTERRES
    41   19   89 1    
    42   20   21 2    
    43   20   22 1    
    44   22   23 1    
    45   22   24 1    
    46   22   90 1    
    47   23   91 1    
    48   23   92 1    
    49   23   93 1    
    50   24   25 am   BACKBONE|DICT|INTERRES
    51   24   94 1    
    52   25   26 2    
    53   25   27 1    
    54   27   28 1    
    55   27   29 1    
    56   27   95 1    
    57   28   96 1    
    58   28   97 1    
    59   28   98 1    
    60   29   30 am   BACKBONE|DICT|INTERRES
    61   29   99 1    
    62   30   31 2    
    63   30   32 1    
    64   32   33 1    
    65   32   34 1    
    66   32  100 1    
    67   33  101 1    
    68   33  102 1    
    69   33  103 1    
    70   34   35 am   BACKBONE|DICT|INTERRES
    71   34  104 1    
    72   35   36 2    
    73   37   38 2    
    74   37   39 am   BACKBONE|DICT|INTERRES
    75   39   40 1    
    76   39  105 1    
    77   40   41 1    
    78   40   42 1    
    79   40  106 1    
    80   41  107 1    
    81   41  108 1    
    82   41  109 1    
    83   42   43 2    
    84   42   44 am   BACKBONE|DICT|INTERRES
    85   44   45 1    
    86   44  110 1    
    87   45   46 1    
    88   45   47 1    
    89   45  111 1    
    90   46  112 1    
    91   46  113 1    
    92   46  114 1    
    93   47   48 2    
    94   47   49 am   BACKBONE|DICT|INTERRES
    95   49   50 1    
    96   49  115 1    
    97   50   51 1    
    98   50   52 1    
    99   50  116 1    
   100   51  117 1    
   101   51  118 1    
   102   51  119 1    
   103   52   53 2    
   104   52   54 am   BACKBONE|DICT|INTERRES
   105   54   55 1    
   106   54  120 1    
   107   55   56 1    
   108   55   57 1    
   109   55  121 1    
   110   56  122 1    
   111   56  123 1    
   112   56  124 1    
   113   57   58 2    
   114   57   59 am   BACKBONE|DICT|INTERRES
   115   59   60 1    
   116   59  125 1    
   117   60   61 1    
   118   60   62 1    
   119   60  126 1    
   120   61  127 1    
   121   61  128 1    
   122   61  129 1    
   123   62   63 2    
   124   62   64 am   BACKBONE|DICT|INTERRES
   125   64   65 1    
   126   64  130 1    
   127   65   66 1    
   128   65   69 1    
   129   65  131 1    
   130   66   67 am   BACKBONE|DICT|INTERRES
   131   66   68 2    
   132   67  132 1    
   133   67  133 1    
   134   69   70 1    
   135   69  134 1    
   136   69  135 1    
   137   70   71 1    
   138   71  136 1    
   139   71  137 1    
@<TRIPOS>SUBSTRUCTURE
     1 UNK         1 GROUP             0       ****    0 ROOT    
