@<TRIPOS>MOLECULE
3R136
137   139    1
SMALL
USER_CHARGES


@<TRIPOS>ATOM
      1 CA         33.5292   18.4210    1.3306 C.3       0 UNK        -0.1979 
      2 C          33.0598   19.7294    1.9499 C.2       0 UNK         0.4864 
      3 O          33.6871   20.2206    2.8893 O.2       0 UNK        -0.5359 
      4 N          31.9648   20.2939    1.4316 N.am      1 UNK        -0.4318 
      5 CA         31.3722   21.5567    1.8642 C.3       1 UNK         0.0824 
      6 C6         30.4276   21.3590    3.0804 C.3       12 UNK        -0.0944 
      7 S7         30.2232   22.8838    4.0513 S.3       12 UNK        -0.2672 
      8 C8         28.5079   23.3647    3.6369 C.3       12 UNK         0.0333 
      9 C9         28.1119   24.7924    4.0272 C.ar      12 UNK        -0.0807 
     10 C10        29.0423   25.7411    4.4704 C.ar      12 UNK        -0.0894 
     11 C11        28.6666   27.0656    4.7236 C.ar      12 UNK        -0.0804 
     12 C12        27.3232   27.4234    4.5969 C.ar      12 UNK        -0.0824 
     13 C13        26.3743   26.4884    4.1752 C.ar      12 UNK        -0.0762 
     14 C14        26.7754   25.1799    3.8867 C.ar      12 UNK        -0.0782 
     15 C15        24.9187   26.8982    4.0117 C.3       12 UNK         0.0230 
     16 S16        24.4919   27.1913    2.2664 S.3       12 UNK        -0.2608 
     17 C17        25.5130   28.6506    1.8536 C.3       12 UNK        -0.0989 
     18 CA         26.8020   28.2839    1.0581 C.3       5 UNK         0.0716 
     19 N          26.5433   27.4984   -0.1559 N.am      5 UNK        -0.4135 
     20 C          25.7531   27.8197   -1.1940 C.2       4 UNK         0.5031 
     21 O          25.0917   28.8571   -1.2676 O.2       4 UNK        -0.5229 
     22 CA         25.6746   26.8196   -2.3671 C.3       4 UNK         0.0329 
     23 CB         26.4800   27.3404   -3.5693 C.3       4 UNK        -0.2001 
     24 N          26.1481   25.4763   -2.0280 N.am      4 UNK        -0.4303 
     25 C          25.5051   24.6075   -1.2348 C.2       3 UNK         0.5044 
     26 O          24.3655   24.7880   -0.8058 O.2       3 UNK        -0.5152 
     27 CA         26.2667   23.3272   -0.8344 C.3       3 UNK         0.0319 
     28 CB         25.7501   22.1208   -1.6350 C.3       3 UNK        -0.2001 
     29 N          27.7272   23.4080   -0.9799 N.am      3 UNK        -0.4354 
     30 C          28.5247   24.2690   -0.3328 C.2       2 UNK         0.4964 
     31 O          28.1131   25.1241    0.4517 O.2       2 UNK        -0.5047 
     32 CA         30.0291   24.1730   -0.6268 C.3       2 UNK         0.0288 
     33 CB         30.6472   25.5701   -0.8079 C.3       2 UNK        -0.2113 
     34 N          30.7188   23.4646    0.4519 N.am      2 UNK        -0.4145 
     35 C          30.6391   22.1417    0.6473 C.2       1 UNK         0.5006 
     36 O          30.0169   21.3778   -0.0981 O.2       1 UNK        -0.5103 
     37 C          27.6872   29.5219    0.7796 C.2       5 UNK         0.5055 
     38 O          27.9734   29.8528   -0.3742 O.2       5 UNK        -0.5220 
     39 N          28.1173   30.1913    1.8546 N.am      6 UNK        -0.4450 
     40 CA         28.8366   31.4622    1.8407 C.3       6 UNK         0.0367 
     41 CB         30.3330   31.2501    1.5349 C.3       6 UNK        -0.1929 
     42 C          28.6407   32.1287    3.2074 C.2       6 UNK         0.5070 
     43 O          28.1981   31.4715    4.1534 O.2       6 UNK        -0.5237 
     44 N          28.9893   33.4170    3.2886 N.am      7 UNK        -0.4739 
     45 CA         28.9206   34.2273    4.5106 C.3       7 UNK         0.0276 
     46 CB         28.6144   35.6828    4.1143 C.3       7 UNK        -0.1927 
     47 C          30.2025   34.1533    5.3660 C.2       7 UNK         0.5013 
     48 O          30.2716   34.8209    6.3993 O.2       7 UNK        -0.5193 
     49 N          31.1979   33.3764    4.9251 N.am      8 UNK        -0.4253 
     50 CA         32.5000   33.2005    5.5609 C.3       8 UNK         0.0242 
     51 CB         33.4707   34.2764    5.0364 C.3       8 UNK        -0.2000 
     52 C          33.0137   31.7866    5.2619 C.2       8 UNK         0.4948 
     53 O          32.4120   31.0747    4.4550 O.2       8 UNK        -0.5275 
     54 N          34.1455   31.4234    5.8822 N.am      9 UNK        -0.4246 
     55 CA         34.8081   30.1107    5.8134 C.3       9 UNK         0.0261 
     56 CB         36.0027   30.1098    6.7827 C.3       9 UNK        -0.1959 
     57 C          35.2500   29.6342    4.4122 C.2       9 UNK         0.5033 
     58 O          35.6633   28.4809    4.2763 O.2       9 UNK        -0.5390 
     59 N          35.1234   30.4922    3.3896 N.am      10 UNK        -0.4215 
     60 CA         35.3142   30.1858    1.9672 C.3       10 UNK         0.0240 
     61 CB         35.0985   31.4705    1.1503 C.3       10 UNK        -0.1982 
     62 C          34.4111   29.0534    1.4337 C.2       10 UNK         0.4970 
     63 O          34.7421   28.4623    0.4054 O.2       10 UNK        -0.4916 
     64 N          33.3143   28.7547    2.1434 N.am      11 UNK        -0.4279 
     65 CA         32.4733   27.5672    1.9422 C.3       11 UNK         0.1003 
     66 C          33.1673   26.1959    2.2161 C.2       11 UNK         0.5709 
     67 N          34.3237   26.1477    2.8690 N.am      11 UNK        -0.7358 
     68 O          32.6408   25.1557    1.8258 O.2       11 UNK        -0.4999 
     69 C69        31.1422   27.6868    2.7255 C.3       12 UNK        -0.0954 
     70 S70        31.3869   27.8416    4.5334 S.3       12 UNK        -0.2268 
     71 C71        29.6844   28.1351    5.1231 C.3       12 UNK         0.0203 
     72 H72        32.8814   18.1007    0.5147 H         1 UNK         0.0888 
     73 H73        33.5410   17.6328    2.0829 H         1 UNK         0.0888 
     74 H74        34.5393   18.5327    0.9375 H         1 UNK         0.0888 
     75 H75        31.4934   19.8766    0.6378 H         1 UNK         0.3017 
     76 H76        32.1838   22.2375    2.1336 H         1 UNK         0.0873 
     77 H77        30.8513   20.6214    3.7638 H         1 UNK         0.0745 
     78 H78        29.4577   20.9557    2.7817 H         1 UNK         0.0745 
     79 H79        28.3643   23.2575    2.5614 H         1 UNK         0.0705 
     80 H80        27.8280   22.6582    4.1150 H         1 UNK         0.0705 
     81 H81        30.0795   25.4668    4.5819 H         1 UNK         0.1334 
     82 H82        27.0186   28.4390    4.8111 H         1 UNK         0.1417 
     83 H83        26.0438   24.4658    3.5332 H         1 UNK         0.1562 
     84 H84        24.6964   27.7919    4.5970 H         1 UNK         0.0748 
     85 H85        24.2737   26.1107    4.4043 H         1 UNK         0.0748 
     86 H86        25.7546   29.1773    2.7773 H         1 UNK         0.0940 
     87 H87        24.8935   29.3437    1.2825 H         1 UNK         0.0940 
     88 H88        27.4063   27.6279    1.6864 H         1 UNK         0.0703 
     89 H89        27.0395   26.6131   -0.1805 H         1 UNK         0.3081 
     90 H90        24.6259   26.7463   -2.6630 H         1 UNK         0.0719 
     91 H91        26.1277   28.3262   -3.8764 H         1 UNK         0.0809 
     92 H92        27.5410   27.4341   -3.3341 H         1 UNK         0.0809 
     93 H93        26.3813   26.6804   -4.4314 H         1 UNK         0.0809 
     94 H94        27.0708   25.2254   -2.3507 H         1 UNK         0.2990 
     95 H95        26.0563   23.1513    0.2227 H         1 UNK         0.0690 
     96 H96        26.2069   21.1919   -1.2928 H         1 UNK         0.0788 
     97 H97        25.9565   22.2257   -2.7009 H         1 UNK         0.0788 
     98 H98        24.6708   22.0090   -1.5213 H         1 UNK         0.0788 
     99 H99        28.1566   22.7131   -1.5754 H         1 UNK         0.2993 
    100 H100       30.1770   23.6209   -1.5576 H         1 UNK         0.0949 
    101 H101       30.5014   26.1900    0.0763 H         1 UNK         0.0767 
    102 H102       31.7179   25.5103   -1.0044 H         1 UNK         0.0767 
    103 H103       30.1896   26.0933   -1.6485 H         1 UNK         0.0767 
    104 H104       31.2693   24.0333    1.0914 H         1 UNK         0.3013 
    105 H105       27.8436   29.9034    2.7865 H         1 UNK         0.3121 
    106 H106       28.3939   32.1058    1.0773 H         1 UNK         0.0774 
    107 H107       30.8472   30.7606    2.3609 H         1 UNK         0.0815 
    108 H108       30.4841   30.6469    0.6398 H         1 UNK         0.0815 
    109 H109       30.8364   32.2024    1.3668 H         1 UNK         0.0815 
    110 H110       29.3505   33.8784    2.4649 H         1 UNK         0.2987 
    111 H111       28.1004   33.8681    5.1366 H         1 UNK         0.0949 
    112 H112       27.6875   35.7525    3.5448 H         1 UNK         0.0806 
    113 H113       28.4959   36.3140    4.9962 H         1 UNK         0.0806 
    114 H114       29.4140   36.1140    3.5107 H         1 UNK         0.0806 
    115 H115       31.0385   32.7764    4.1263 H         1 UNK         0.3010 
    116 H116       32.3940   33.2943    6.6440 H         1 UNK         0.0829 
    117 H117       34.4496   34.1999    5.5108 H         1 UNK         0.0813 
    118 H118       33.0962   35.2795    5.2419 H         1 UNK         0.0813 
    119 H119       33.6202   34.1927    3.9591 H         1 UNK         0.0813 
    120 H120       34.5747   32.0933    6.5048 H         1 UNK         0.3038 
    121 H121       34.0844   29.3736    6.1679 H         1 UNK         0.0769 
    122 H122       35.6878   30.3251    7.8039 H         1 UNK         0.0811 
    123 H123       36.7529   30.8485    6.4975 H         1 UNK         0.0811 
    124 H124       36.4953   29.1363    6.7999 H         1 UNK         0.0811 
    125 H125       34.7480   31.4041    3.6035 H         1 UNK         0.3204 
    126 H126       36.3485   29.8611    1.8383 H         1 UNK         0.0748 
    127 H127       35.2622   31.2901    0.0868 H         1 UNK         0.0771 
    128 H128       34.0833   31.8539    1.2634 H         1 UNK         0.0771 
    129 H129       35.7914   32.2560    1.4530 H         1 UNK         0.0771 
    130 H130       33.1066   29.2993    2.9707 H         1 UNK         0.2980 
    131 H131       32.2209   27.5577    0.8812 H         1 UNK         0.0545 
    132 H132       34.7505   26.9899    3.2392 H         1 UNK         0.3459 
    133 H133       34.7538   25.2528    3.0356 H         1 UNK         0.3459 
    134 H134       30.5098   26.8244    2.5129 H         1 UNK         0.0616 
    135 H135       30.5749   28.5461    2.3746 H         1 UNK         0.0616 
    136 H136       29.3684   29.1091    4.7480 H         1 UNK         0.0634 
    137 H137       29.7026   28.2117    6.2106 H         1 UNK         0.0634 
@<TRIPOS>BOND
     1    1    2 1    
     2    1   72 1    
     3    1   73 1    
     4    1   74 1    
     5    2    3 2    
     6    2    4 am   BACKBONE|DICT|INTERRES
     7    4    5 1    
     8    4   75 1    
     9    5    6 1    
    10    5   35 1    
    11    5   76 1    
    12    6    7 1    
    13    6   77 1    
    14    6   78 1    
    15    7    8 1    
    16    8    9 1    
    17    8   79 1    
    18    8   80 1    
    19    9   10 ar   
    20    9   14 ar   
    21   10   11 ar   
    22   10   81 1    
    23   11   12 ar   
    24   11   71 1    
    25   12   13 ar   
    26   12   82 1    
    27   13   14 ar   
    28   13   15 1    
    29   14   83 1    
    30   15   16 1    
    31   15   84 1    
    32   15   85 1    
    33   16   17 1    
    34   17   18 1    
    35   17   86 1    
    36   17   87 1    
    37   18   19 1    
    38   18   37 1    
    39   18   88 1    
    40   19   20 am   BACKBONE|DICT|INTERRES
    41   19   89 1    
    42   20   21 2    
    43   20   22 1    
    44   22   23 1    
    45   22   24 1    
    46   22   90 1    
    47   23   91 1    
    48   23   92 1    
    49   23   93 1    
    50   24   25 am   BACKBONE|DICT|INTERRES
    51   24   94 1    
    52   25   26 2    
    53   25   27 1    
    54   27   28 1    
    55   27   29 1    
    56   27   95 1    
    57   28   96 1    
    58   28   97 1    
    59   28   98 1    
    60   29   30 am   BACKBONE|DICT|INTERRES
    61   29   99 1    
    62   30   31 2    
    63   30   32 1    
    64   32   33 1    
    65   32   34 1    
    66   32  100 1    
    67   33  101 1    
    68   33  102 1    
    69   33  103 1    
    70   34   35 am   BACKBONE|DICT|INTERRES
    71   34  104 1    
    72   35   36 2    
    73   37   38 2    
    74   37   39 am   BACKBONE|DICT|INTERRES
    75   39   40 1    
    76   39  105 1    
    77   40   41 1    
    78   40   42 1    
    79   40  106 1    
    80   41  107 1    
    81   41  108 1    
    82   41  109 1    
    83   42   43 2    
    84   42   44 am   BACKBONE|DICT|INTERRES
    85   44   45 1    
    86   44  110 1    
    87   45   46 1    
    88   45   47 1    
    89   45  111 1    
    90   46  112 1    
    91   46  113 1    
    92   46  114 1    
    93   47   48 2    
    94   47   49 am   BACKBONE|DICT|INTERRES
    95   49   50 1    
    96   49  115 1    
    97   50   51 1    
    98   50   52 1    
    99   50  116 1    
   100   51  117 1    
   101   51  118 1    
   102   51  119 1    
   103   52   53 2    
   104   52   54 am   BACKBONE|DICT|INTERRES
   105   54   55 1    
   106   54  120 1    
   107   55   56 1    
   108   55   57 1    
   109   55  121 1    
   110   56  122 1    
   111   56  123 1    
   112   56  124 1    
   113   57   58 2    
   114   57   59 am   BACKBONE|DICT|INTERRES
   115   59   60 1    
   116   59  125 1    
   117   60   61 1    
   118   60   62 1    
   119   60  126 1    
   120   61  127 1    
   121   61  128 1    
   122   61  129 1    
   123   62   63 2    
   124   62   64 am   BACKBONE|DICT|INTERRES
   125   64   65 1    
   126   64  130 1    
   127   65   66 1    
   128   65   69 1    
   129   65  131 1    
   130   66   67 am   BACKBONE|DICT|INTERRES
   131   66   68 2    
   132   67  132 1    
   133   67  133 1    
   134   69   70 1    
   135   69  134 1    
   136   69  135 1    
   137   70   71 1    
   138   71  136 1    
   139   71  137 1    
@<TRIPOS>SUBSTRUCTURE
     1 UNK         1 GROUP             0       ****    0 ROOT    
