@<TRIPOS>MOLECULE
3R136
137   139    1
SMALL
USER_CHARGES


@<TRIPOS>ATOM
      1 CA         32.2507   23.2703   -5.2047 C.3       0 UNK        -0.1979 
      2 C          31.3183   23.9384   -4.2045 C.2       0 UNK         0.4864 
      3 O          30.7983   25.0203   -4.4830 O.2       0 UNK        -0.5359 
      4 N          31.1111   23.3068   -3.0416 N.am      1 UNK        -0.4318 
      5 CA         30.1936   23.7660   -1.9943 C.3       1 UNK         0.0824 
      6 C6         30.5722   23.1611   -0.6177 C.3       12 UNK        -0.0944 
      7 S7         29.9534   24.1729    0.7652 S.3       12 UNK        -0.2672 
      8 C8         30.8939   23.4811    2.1540 C.3       12 UNK         0.0333 
      9 C9         30.5040   24.1830    3.4424 C.ar      12 UNK        -0.0807 
     10 C10        31.2973   25.2136    3.9562 C.ar      12 UNK        -0.0894 
     11 C11        30.9190   25.8828    5.1239 C.ar      12 UNK        -0.0804 
     12 C12        29.7404   25.5131    5.7756 C.ar      12 UNK        -0.0824 
     13 C13        28.9206   24.5106    5.2493 C.ar      12 UNK        -0.0762 
     14 C14        29.3185   23.8320    4.0950 C.ar      12 UNK        -0.0782 
     15 C15        27.5736   24.2110    5.8919 C.3       12 UNK         0.0230 
     16 S16        26.1915   24.9330    4.9397 S.3       12 UNK        -0.2608 
     17 C17        26.6880   26.6871    4.7997 C.3       12 UNK        -0.0989 
     18 CA         27.1730   27.0256    3.3579 C.3       5 UNK         0.0716 
     19 N          26.0667   27.0400    2.3855 N.am      5 UNK        -0.4135 
     20 C          25.0455   27.9168    2.3603 C.2       4 UNK         0.5031 
     21 O          24.9409   28.8714    3.1314 O.2       4 UNK        -0.5229 
     22 CA         23.9482   27.7167    1.2955 C.3       4 UNK         0.0329 
     23 CB         24.1982   28.6430    0.0936 C.3       4 UNK        -0.2001 
     24 N          23.8362   26.3379    0.8198 N.am      4 UNK        -0.4303 
     25 C          23.4639   25.2877    1.5648 C.2       3 UNK         0.5044 
     26 O          23.0098   25.3897    2.7048 O.2       3 UNK        -0.5152 
     27 CA         23.6438   23.8825    0.9516 C.3       3 UNK         0.0319 
     28 CB         22.2751   23.2385    0.6728 C.3       3 UNK        -0.2001 
     29 N          24.4550   23.8187   -0.2743 N.am      3 UNK        -0.4354 
     30 C          25.7319   24.2060   -0.4046 C.2       2 UNK         0.4964 
     31 O          26.3836   24.7512    0.4918 O.2       2 UNK        -0.5047 
     32 CA         26.3563   24.0050   -1.7905 C.3       2 UNK         0.0288 
     33 CB         25.8164   25.0370   -2.7979 C.3       2 UNK        -0.2113 
     34 N          27.8018   24.1529   -1.6752 N.am      2 UNK        -0.4145 
     35 C          28.7216   23.4769   -2.3695 C.2       1 UNK         0.5006 
     36 O          28.4479   22.6475   -3.2428 O.2       1 UNK        -0.5103 
     37 C          28.0490   28.3021    3.2812 C.2       5 UNK         0.5055 
     38 O          28.5814   28.7557    4.2957 O.2       5 UNK        -0.5220 
     39 N          28.1763   28.8662    2.0712 N.am      6 UNK        -0.4450 
     40 CA         28.8566   30.1365    1.8040 C.3       6 UNK         0.0367 
     41 CB         28.0442   30.9100    0.7516 C.3       6 UNK        -0.1929 
     42 C          30.3131   29.9705    1.3357 C.2       6 UNK         0.5070 
     43 O          31.0112   30.9792    1.2104 O.2       6 UNK        -0.5237 
     44 N          30.7534   28.7322    1.0691 N.am      7 UNK        -0.4739 
     45 CA         32.0883   28.4103    0.5509 C.3       7 UNK         0.0276 
     46 CB         32.1833   26.9013    0.2869 C.3       7 UNK        -0.1927 
     47 C          33.2285   28.8643    1.4787 C.2       7 UNK         0.5013 
     48 O          33.0662   28.8563    2.7008 O.2       7 UNK        -0.5193 
     49 N          34.3559   29.2591    0.8678 N.am      8 UNK        -0.4253 
     50 CA         35.5627   29.7972    1.5128 C.3       8 UNK         0.0242 
     51 CB         36.2905   28.6900    2.3066 C.3       8 UNK        -0.2000 
     52 C          35.2803   31.0574    2.3583 C.2       8 UNK         0.4948 
     53 O          35.8448   31.2030    3.4429 O.2       8 UNK        -0.5275 
     54 N          34.3867   31.9235    1.8493 N.am      9 UNK        -0.4246 
     55 CA         33.8286   33.1152    2.5036 C.3       9 UNK         0.0261 
     56 CB         34.9088   34.2030    2.6875 C.3       9 UNK        -0.1959 
     57 C          33.1065   32.7496    3.8143 C.2       9 UNK         0.5033 
     58 O          33.4517   33.2664    4.8794 O.2       9 UNK        -0.5390 
     59 N          32.1525   31.8122    3.7048 N.am      10 UNK        -0.4215 
     60 CA         31.4011   31.1717    4.7928 C.3       10 UNK         0.0240 
     61 CB         30.3658   32.1514    5.3822 C.3       10 UNK        -0.1982 
     62 C          32.3189   30.5414    5.8599 C.2       10 UNK         0.4970 
     63 O          32.0614   30.6819    7.0570 O.2       10 UNK        -0.4916 
     64 N          33.3854   29.8777    5.3923 N.am      11 UNK        -0.4279 
     65 CA         34.4673   29.2765    6.1882 C.3       11 UNK         0.1003 
     66 C          35.3050   30.2955    7.0255 C.2       11 UNK         0.5709 
     67 N          35.2198   31.5991    6.7842 N.am      11 UNK        -0.7358 
     68 O          36.0780   29.8981    7.8948 O.2       11 UNK        -0.4999 
     69 C69        33.9853   28.0513    7.0220 C.3       12 UNK        -0.0954 
     70 S70        33.4595   26.6327    5.9988 S.3       12 UNK        -0.2268 
     71 C71        31.7278   27.0625    5.6400 C.3       12 UNK         0.0203 
     72 H72        33.0887   23.9280   -5.4342 H         1 UNK         0.0888 
     73 H73        32.6517   22.3308   -4.8243 H         1 UNK         0.0888 
     74 H74        31.7175   23.0605   -6.1316 H         1 UNK         0.0888 
     75 H75        31.5367   22.4042   -2.8868 H         1 UNK         0.3017 
     76 H76        30.3037   24.8513   -1.9317 H         1 UNK         0.0873 
     77 H77        31.6584   23.1144   -0.5201 H         1 UNK         0.0745 
     78 H78        30.2129   22.1351   -0.5139 H         1 UNK         0.0745 
     79 H79        31.9629   23.5906    1.9642 H         1 UNK         0.0705 
     80 H80        30.6956   22.4113    2.2357 H         1 UNK         0.0705 
     81 H81        32.2007   25.5113    3.4419 H         1 UNK         0.1334 
     82 H82        29.4307   26.0461    6.6642 H         1 UNK         0.1417 
     83 H83        28.6816   23.0640    3.6770 H         1 UNK         0.1562 
     84 H84        27.5403   24.5913    6.9141 H         1 UNK         0.0748 
     85 H85        27.4326   23.1316    5.9624 H         1 UNK         0.0748 
     86 H86        27.4501   26.8968    5.5488 H         1 UNK         0.0940 
     87 H87        25.8414   27.3130    5.0840 H         1 UNK         0.0940 
     88 H88        27.8395   26.2238    3.0352 H         1 UNK         0.0703 
     89 H89        26.0707   26.2752    1.7157 H         1 UNK         0.3081 
     90 H90        22.9950   27.9923    1.7516 H         1 UNK         0.0719 
     91 H91        25.1287   28.3985   -0.4204 H         1 UNK         0.0809 
     92 H92        23.3866   28.5804   -0.6316 H         1 UNK         0.0809 
     93 H93        24.2658   29.6847    0.4111 H         1 UNK         0.0809 
     94 H94        24.1798   26.1502   -0.1100 H         1 UNK         0.2990 
     95 H95        24.1559   23.2806    1.7052 H         1 UNK         0.0690 
     96 H96        22.3808   22.2038    0.3460 H         1 UNK         0.0788 
     97 H97        21.7241   23.7811   -0.0964 H         1 UNK         0.0788 
     98 H98        21.6556   23.2282    1.5709 H         1 UNK         0.0788 
     99 H99        23.9991   23.4112   -1.0786 H         1 UNK         0.2993 
    100 H100       26.1146   22.9946   -2.1283 H         1 UNK         0.0949 
    101 H101       26.2656   24.8989   -3.7817 H         1 UNK         0.0767 
    102 H102       24.7369   24.9447   -2.9227 H         1 UNK         0.0767 
    103 H103       26.0245   26.0591   -2.4782 H         1 UNK         0.0767 
    104 H104       28.0989   24.7154   -0.8855 H         1 UNK         0.3013 
    105 H105       27.7139   28.4263    1.2888 H         1 UNK         0.3121 
    106 H106       28.8798   30.7386    2.7148 H         1 UNK         0.0774 
    107 H107       28.4870   31.8876    0.5556 H         1 UNK         0.0815 
    108 H108       27.9992   30.3767   -0.1988 H         1 UNK         0.0815 
    109 H109       27.0218   31.0825    1.0891 H         1 UNK         0.0815 
    110 H110       30.1350   27.9554    1.2468 H         1 UNK         0.2987 
    111 H111       32.1945   28.9337   -0.4018 H         1 UNK         0.0949 
    112 H112       33.1579   26.6313   -0.1219 H         1 UNK         0.0806 
    113 H113       32.0453   26.3269    1.2024 H         1 UNK         0.0806 
    114 H114       31.4325   26.5773   -0.4333 H         1 UNK         0.0806 
    115 H115       34.3878   29.2206   -0.1421 H         1 UNK         0.3010 
    116 H116       36.2286   30.1180    0.7103 H         1 UNK         0.0829 
    117 H117       36.5205   27.8345    1.6718 H         1 UNK         0.0813 
    118 H118       37.2354   29.0532    2.7127 H         1 UNK         0.0813 
    119 H119       35.6924   28.3314    3.1445 H         1 UNK         0.0813 
    120 H120       33.9718   31.6888    0.9579 H         1 UNK         0.3038 
    121 H121       33.0675   33.5150    1.8314 H         1 UNK         0.0769 
    122 H122       34.4736   35.1174    3.0923 H         1 UNK         0.0811 
    123 H123       35.3790   34.4597    1.7384 H         1 UNK         0.0811 
    124 H124       35.6932   33.8866    3.3757 H         1 UNK         0.0811 
    125 H125       31.9431   31.4596    2.7724 H         1 UNK         0.3204 
    126 H126       30.8551   30.3417    4.3433 H         1 UNK         0.0748 
    127 H127       29.7268   31.6511    6.1111 H         1 UNK         0.0771 
    128 H128       30.8460   32.9901    5.8875 H         1 UNK         0.0771 
    129 H129       29.7151   32.5538    4.6059 H         1 UNK         0.0771 
    130 H130       33.4696   29.7569    4.3869 H         1 UNK         0.2980 
    131 H131       35.1794   28.9025    5.4528 H         1 UNK         0.0545 
    132 H132       35.7798   32.2365    7.3263 H         1 UNK         0.3459 
    133 H133       34.6086   31.9571    6.0593 H         1 UNK         0.3459 
    134 H134       34.7944   27.6765    7.6507 H         1 UNK         0.0616 
    135 H135       33.1856   28.3300    7.7093 H         1 UNK         0.0616 
    136 H136       31.6989   27.8404    4.8778 H         1 UNK         0.0634 
    137 H137       31.2676   27.4837    6.5350 H         1 UNK         0.0634 
@<TRIPOS>BOND
     1    1    2 1    
     2    1   72 1    
     3    1   73 1    
     4    1   74 1    
     5    2    3 2    
     6    2    4 am   BACKBONE|DICT|INTERRES
     7    4    5 1    
     8    4   75 1    
     9    5    6 1    
    10    5   35 1    
    11    5   76 1    
    12    6    7 1    
    13    6   77 1    
    14    6   78 1    
    15    7    8 1    
    16    8    9 1    
    17    8   79 1    
    18    8   80 1    
    19    9   10 ar   
    20    9   14 ar   
    21   10   11 ar   
    22   10   81 1    
    23   11   12 ar   
    24   11   71 1    
    25   12   13 ar   
    26   12   82 1    
    27   13   14 ar   
    28   13   15 1    
    29   14   83 1    
    30   15   16 1    
    31   15   84 1    
    32   15   85 1    
    33   16   17 1    
    34   17   18 1    
    35   17   86 1    
    36   17   87 1    
    37   18   19 1    
    38   18   37 1    
    39   18   88 1    
    40   19   20 am   BACKBONE|DICT|INTERRES
    41   19   89 1    
    42   20   21 2    
    43   20   22 1    
    44   22   23 1    
    45   22   24 1    
    46   22   90 1    
    47   23   91 1    
    48   23   92 1    
    49   23   93 1    
    50   24   25 am   BACKBONE|DICT|INTERRES
    51   24   94 1    
    52   25   26 2    
    53   25   27 1    
    54   27   28 1    
    55   27   29 1    
    56   27   95 1    
    57   28   96 1    
    58   28   97 1    
    59   28   98 1    
    60   29   30 am   BACKBONE|DICT|INTERRES
    61   29   99 1    
    62   30   31 2    
    63   30   32 1    
    64   32   33 1    
    65   32   34 1    
    66   32  100 1    
    67   33  101 1    
    68   33  102 1    
    69   33  103 1    
    70   34   35 am   BACKBONE|DICT|INTERRES
    71   34  104 1    
    72   35   36 2    
    73   37   38 2    
    74   37   39 am   BACKBONE|DICT|INTERRES
    75   39   40 1    
    76   39  105 1    
    77   40   41 1    
    78   40   42 1    
    79   40  106 1    
    80   41  107 1    
    81   41  108 1    
    82   41  109 1    
    83   42   43 2    
    84   42   44 am   BACKBONE|DICT|INTERRES
    85   44   45 1    
    86   44  110 1    
    87   45   46 1    
    88   45   47 1    
    89   45  111 1    
    90   46  112 1    
    91   46  113 1    
    92   46  114 1    
    93   47   48 2    
    94   47   49 am   BACKBONE|DICT|INTERRES
    95   49   50 1    
    96   49  115 1    
    97   50   51 1    
    98   50   52 1    
    99   50  116 1    
   100   51  117 1    
   101   51  118 1    
   102   51  119 1    
   103   52   53 2    
   104   52   54 am   BACKBONE|DICT|INTERRES
   105   54   55 1    
   106   54  120 1    
   107   55   56 1    
   108   55   57 1    
   109   55  121 1    
   110   56  122 1    
   111   56  123 1    
   112   56  124 1    
   113   57   58 2    
   114   57   59 am   BACKBONE|DICT|INTERRES
   115   59   60 1    
   116   59  125 1    
   117   60   61 1    
   118   60   62 1    
   119   60  126 1    
   120   61  127 1    
   121   61  128 1    
   122   61  129 1    
   123   62   63 2    
   124   62   64 am   BACKBONE|DICT|INTERRES
   125   64   65 1    
   126   64  130 1    
   127   65   66 1    
   128   65   69 1    
   129   65  131 1    
   130   66   67 am   BACKBONE|DICT|INTERRES
   131   66   68 2    
   132   67  132 1    
   133   67  133 1    
   134   69   70 1    
   135   69  134 1    
   136   69  135 1    
   137   70   71 1    
   138   71  136 1    
   139   71  137 1    
@<TRIPOS>SUBSTRUCTURE
     1 UNK         1 GROUP             0       ****    0 ROOT    
