@<TRIPOS>MOLECULE
3R136
137   139    1
SMALL
USER_CHARGES


@<TRIPOS>ATOM
      1 CA         25.6426   20.8273    3.4750 C.3       0 UNK        -0.1979 
      2 C          26.4742   21.7258    2.5718 C.2       0 UNK         0.4864 
      3 O          26.1132   21.9300    1.4125 O.2       0 UNK        -0.5359 
      4 N          27.5869   22.2604    3.0931 N.am      1 UNK        -0.4318 
      5 CA         28.5078   23.1457    2.3677 C.3       1 UNK         0.0824 
      6 C6         29.8766   23.2906    3.0822 C.3       12 UNK        -0.0944 
      7 S7         30.6332   21.7153    3.6217 S.3       12 UNK        -0.2672 
      8 C8         31.3419   21.0298    2.0840 C.3       12 UNK         0.0333 
      9 C9         32.2438   21.9970    1.3236 C.ar      12 UNK        -0.0807 
     10 C10        33.2033   22.7718    1.9875 C.ar      12 UNK        -0.0894 
     11 C11        33.9705   23.7057    1.2851 C.ar      12 UNK        -0.0804 
     12 C12        33.8088   23.8297   -0.0969 C.ar      12 UNK        -0.0824 
     13 C13        32.8662   23.0504   -0.7735 C.ar      12 UNK        -0.0762 
     14 C14        32.0932   22.1310   -0.0601 C.ar      12 UNK        -0.0782 
     15 C15        32.6286   23.2604   -2.2630 C.3       12 UNK         0.0230 
     16 S16        31.0572   24.1329   -2.5827 S.3       12 UNK        -0.2608 
     17 C17        31.1572   25.4959   -1.3734 C.3       12 UNK        -0.0989 
     18 CA         30.1209   26.6279   -1.5789 C.3       5 UNK         0.0716 
     19 N          28.7372   26.1553   -1.5268 N.am      5 UNK        -0.4135 
     20 C          27.9434   25.9885   -2.5922 C.2       4 UNK         0.5031 
     21 O          28.2832   26.2059   -3.7565 O.2       4 UNK        -0.5229 
     22 CA         26.5079   25.5192   -2.3057 C.3       4 UNK         0.0329 
     23 CB         26.4811   24.0262   -1.9372 C.3       4 UNK        -0.2001 
     24 N          25.8800   26.2984   -1.2397 N.am      4 UNK        -0.4303 
     25 C          25.5880   27.6046   -1.2998 C.2       3 UNK         0.5044 
     26 O          25.7198   28.2866   -2.3166 O.2       3 UNK        -0.5152 
     27 CA         25.0930   28.2843   -0.0100 C.3       3 UNK         0.0319 
     28 CB         23.5538   28.2845    0.0732 C.3       3 UNK        -0.2001 
     29 N          25.7128   27.7664    1.2184 N.am      3 UNK        -0.4354 
     30 C          25.5494   26.5723    1.8029 C.2       2 UNK         0.4964 
     31 O          24.7944   25.6917    1.3867 O.2       2 UNK        -0.5047 
     32 CA         26.3939   26.3118    3.0570 C.3       2 UNK         0.0288 
     33 CB         25.5328   26.4408    4.3235 C.3       2 UNK        -0.2113 
     34 N          27.0300   24.9928    3.0399 N.am      2 UNK        -0.4145 
     35 C          27.9098   24.5491    2.1275 C.2       1 UNK         0.5006 
     36 O          28.2894   25.2120    1.1582 O.2       1 UNK        -0.5103 
     37 C          30.3438   27.7169   -0.5165 C.2       5 UNK         0.5055 
     38 O          30.8471   28.7920   -0.8460 O.2       5 UNK        -0.5220 
     39 N          30.0152   27.4012    0.7438 N.am      6 UNK        -0.4450 
     40 CA         30.3092   28.2319    1.9087 C.3       6 UNK         0.0367 
     41 CB         30.3490   27.3418    3.1618 C.3       6 UNK        -0.1929 
     42 C          29.2896   29.3666    2.0764 C.2       6 UNK         0.5070 
     43 O          28.1052   29.1832    1.7831 O.2       6 UNK        -0.5237 
     44 N          29.7728   30.5012    2.5867 N.am      7 UNK        -0.4739 
     45 CA         28.9877   31.6853    2.9327 C.3       7 UNK         0.0276 
     46 CB         29.6510   32.9057    2.2643 C.3       7 UNK        -0.1927 
     47 C          28.9216   31.8342    4.4636 C.2       7 UNK         0.5013 
     48 O          29.2961   30.9128    5.1932 O.2       7 UNK        -0.5193 
     49 N          28.4835   33.0090    4.9405 N.am      8 UNK        -0.4253 
     50 CA         28.4502   33.3766    6.3642 C.3       8 UNK         0.0242 
     51 CB         27.7596   34.7410    6.5213 C.3       8 UNK        -0.2000 
     52 C          29.8382   33.3942    7.0378 C.2       8 UNK         0.4948 
     53 O          29.9287   33.1571    8.2422 O.2       8 UNK        -0.5275 
     54 N          30.8908   33.6327    6.2431 N.am      9 UNK        -0.4246 
     55 CA         32.3000   33.5447    6.6370 C.3       9 UNK         0.0261 
     56 CB         33.0902   34.6190    5.8668 C.3       9 UNK        -0.1959 
     57 C          32.8963   32.1373    6.4104 C.2       9 UNK         0.5033 
     58 O          34.1218   32.0038    6.3841 O.2       9 UNK        -0.5390 
     59 N          32.0400   31.1197    6.2262 N.am      10 UNK        -0.4215 
     60 CA         32.3650   29.7396    5.8575 C.3       10 UNK         0.0240 
     61 CB         33.1858   29.0348    6.9634 C.3       10 UNK        -0.1982 
     62 C          32.9916   29.6850    4.4510 C.2       10 UNK         0.4970 
     63 O          32.5237   30.3973    3.5589 O.2       10 UNK        -0.4916 
     64 N          34.0131   28.8424    4.2703 N.am      11 UNK        -0.4279 
     65 CA         34.8040   28.7303    3.0344 C.3       11 UNK         0.1003 
     66 C          35.9154   29.8148    2.8974 C.2       11 UNK         0.5709 
     67 N          36.0750   30.7410    3.8370 N.am      11 UNK        -0.7358 
     68 O          36.6434   29.8262    1.9077 O.2       11 UNK        -0.4999 
     69 C69        35.3667   27.2940    2.8535 C.3       12 UNK        -0.0954 
     70 S70        34.0294   26.0701    2.6677 S.3       12 UNK        -0.2268 
     71 C71        34.9292   24.6275    2.0209 C.3       12 UNK         0.0203 
     72 H72        25.5596   19.8319    3.0396 H         1 UNK         0.0888 
     73 H73        24.6385   21.2352    3.5876 H         1 UNK         0.0888 
     74 H74        26.0817   20.7273    4.4675 H         1 UNK         0.0888 
     75 H75        27.8602   22.0261    4.0374 H         1 UNK         0.3017 
     76 H76        28.6882   22.7039    1.3851 H         1 UNK         0.0873 
     77 H77        29.7695   23.9015    3.9811 H         1 UNK         0.0745 
     78 H78        30.5796   23.8326    2.4471 H         1 UNK         0.0745 
     79 H79        31.9170   20.1369    2.3317 H         1 UNK         0.0705 
     80 H80        30.5162   20.6981    1.4523 H         1 UNK         0.0705 
     81 H81        33.3193   22.6841    3.0591 H         1 UNK         0.1334 
     82 H82        34.3881   24.5648   -0.6390 H         1 UNK         0.1417 
     83 H83        31.3479   21.5472   -0.5837 H         1 UNK         0.1562 
     84 H84        32.6136   22.2961   -2.7729 H         1 UNK         0.0748 
     85 H85        33.4466   23.8297   -2.7072 H         1 UNK         0.0748 
     86 H86        32.1677   25.9081   -1.4153 H         1 UNK         0.0940 
     87 H87        31.0448   25.0604   -0.3779 H         1 UNK         0.0940 
     88 H88        30.3138   27.0916   -2.5489 H         1 UNK         0.0703 
     89 H89        28.3744   25.9249   -0.6064 H         1 UNK         0.3081 
     90 H90        25.9200   25.6585   -3.2154 H         1 UNK         0.0719 
     91 H91        27.0153   23.8251   -1.0075 H         1 UNK         0.0809 
     92 H92        25.4592   23.6662   -1.8169 H         1 UNK         0.0809 
     93 H93        26.9477   23.4237   -2.7178 H         1 UNK         0.0809 
     94 H94        25.6814   25.8196   -0.3669 H         1 UNK         0.2990 
     95 H95        25.4146   29.3254   -0.0709 H         1 UNK         0.0690 
     96 H96        23.2049   28.8043    0.9655 H         1 UNK         0.0788 
     97 H97        23.1426   27.2749    0.0894 H         1 UNK         0.0788 
     98 H98        23.1208   28.7933   -0.7889 H         1 UNK         0.0788 
     99 H99        26.4504   28.3669    1.5873 H         1 UNK         0.2993 
    100 H100       27.1820   27.0627    3.1068 H         1 UNK         0.0949 
    101 H101       25.0612   27.4232    4.3759 H         1 UNK         0.0767 
    102 H102       24.7367   25.6952    4.3471 H         1 UNK         0.0767 
    103 H103       26.1326   26.3228    5.2263 H         1 UNK         0.0767 
    104 H104       26.7631   24.3590    3.7780 H         1 UNK         0.3013 
    105 H105       29.5226   26.5310    0.9271 H         1 UNK         0.3121 
    106 H106       31.3007   28.6708    1.7744 H         1 UNK         0.0774 
    107 H107       31.1300   26.5860    3.0868 H         1 UNK         0.0815 
    108 H108       29.4069   26.8261    3.3300 H         1 UNK         0.0815 
    109 H109       30.5512   27.9309    4.0546 H         1 UNK         0.0815 
    110 H110       30.7485   30.5235    2.8756 H         1 UNK         0.2987 
    111 H111       27.9642   31.5898    2.5638 H         1 UNK         0.0949 
    112 H112       30.6454   33.0982    2.6700 H         1 UNK         0.0806 
    113 H113       29.7588   32.7520    1.1902 H         1 UNK         0.0806 
    114 H114       29.0578   33.8115    2.3923 H         1 UNK         0.0806 
    115 H115       28.1772   33.7145    4.2857 H         1 UNK         0.3010 
    116 H116       27.8493   32.6269    6.8836 H         1 UNK         0.0829 
    117 H117       26.7408   34.7183    6.1338 H         1 UNK         0.0813 
    118 H118       27.6970   35.0276    7.5722 H         1 UNK         0.0813 
    119 H119       28.3012   35.5316    6.0003 H         1 UNK         0.0813 
    120 H120       30.7119   33.8186    5.2671 H         1 UNK         0.3038 
    121 H121       32.3915   33.7601    7.7036 H         1 UNK         0.0769 
    122 H122       33.0876   34.4288    4.7928 H         1 UNK         0.0811 
    123 H123       34.1318   34.6490    6.1896 H         1 UNK         0.0811 
    124 H124       32.6757   35.6133    6.0340 H         1 UNK         0.0811 
    125 H125       31.0487   31.3318    6.1901 H         1 UNK         0.3204 
    126 H126       31.4086   29.2219    5.7856 H         1 UNK         0.0748 
    127 H127       32.7063   29.1485    7.9358 H         1 UNK         0.0771 
    128 H128       33.2654   27.9632    6.7764 H         1 UNK         0.0771 
    129 H129       34.1970   29.4345    7.0484 H         1 UNK         0.0771 
    130 H130       34.3357   28.2925    5.0521 H         1 UNK         0.2980 
    131 H131       34.1338   28.9151    2.1924 H         1 UNK         0.0545 
    132 H132       36.7970   31.4343    3.7227 H         1 UNK         0.3459 
    133 H133       35.4653   30.7798    4.6405 H         1 UNK         0.3459 
    134 H134       35.9956   27.2390    1.9631 H         1 UNK         0.0616 
    135 H135       35.9965   27.0112    3.6987 H         1 UNK         0.0616 
    136 H136       35.7243   24.9527    1.3482 H         1 UNK         0.0634 
    137 H137       35.4121   24.0998    2.8446 H         1 UNK         0.0634 
@<TRIPOS>BOND
     1    1    2 1    
     2    1   72 1    
     3    1   73 1    
     4    1   74 1    
     5    2    3 2    
     6    2    4 am   BACKBONE|DICT|INTERRES
     7    4    5 1    
     8    4   75 1    
     9    5    6 1    
    10    5   35 1    
    11    5   76 1    
    12    6    7 1    
    13    6   77 1    
    14    6   78 1    
    15    7    8 1    
    16    8    9 1    
    17    8   79 1    
    18    8   80 1    
    19    9   10 ar   
    20    9   14 ar   
    21   10   11 ar   
    22   10   81 1    
    23   11   12 ar   
    24   11   71 1    
    25   12   13 ar   
    26   12   82 1    
    27   13   14 ar   
    28   13   15 1    
    29   14   83 1    
    30   15   16 1    
    31   15   84 1    
    32   15   85 1    
    33   16   17 1    
    34   17   18 1    
    35   17   86 1    
    36   17   87 1    
    37   18   19 1    
    38   18   37 1    
    39   18   88 1    
    40   19   20 am   BACKBONE|DICT|INTERRES
    41   19   89 1    
    42   20   21 2    
    43   20   22 1    
    44   22   23 1    
    45   22   24 1    
    46   22   90 1    
    47   23   91 1    
    48   23   92 1    
    49   23   93 1    
    50   24   25 am   BACKBONE|DICT|INTERRES
    51   24   94 1    
    52   25   26 2    
    53   25   27 1    
    54   27   28 1    
    55   27   29 1    
    56   27   95 1    
    57   28   96 1    
    58   28   97 1    
    59   28   98 1    
    60   29   30 am   BACKBONE|DICT|INTERRES
    61   29   99 1    
    62   30   31 2    
    63   30   32 1    
    64   32   33 1    
    65   32   34 1    
    66   32  100 1    
    67   33  101 1    
    68   33  102 1    
    69   33  103 1    
    70   34   35 am   BACKBONE|DICT|INTERRES
    71   34  104 1    
    72   35   36 2    
    73   37   38 2    
    74   37   39 am   BACKBONE|DICT|INTERRES
    75   39   40 1    
    76   39  105 1    
    77   40   41 1    
    78   40   42 1    
    79   40  106 1    
    80   41  107 1    
    81   41  108 1    
    82   41  109 1    
    83   42   43 2    
    84   42   44 am   BACKBONE|DICT|INTERRES
    85   44   45 1    
    86   44  110 1    
    87   45   46 1    
    88   45   47 1    
    89   45  111 1    
    90   46  112 1    
    91   46  113 1    
    92   46  114 1    
    93   47   48 2    
    94   47   49 am   BACKBONE|DICT|INTERRES
    95   49   50 1    
    96   49  115 1    
    97   50   51 1    
    98   50   52 1    
    99   50  116 1    
   100   51  117 1    
   101   51  118 1    
   102   51  119 1    
   103   52   53 2    
   104   52   54 am   BACKBONE|DICT|INTERRES
   105   54   55 1    
   106   54  120 1    
   107   55   56 1    
   108   55   57 1    
   109   55  121 1    
   110   56  122 1    
   111   56  123 1    
   112   56  124 1    
   113   57   58 2    
   114   57   59 am   BACKBONE|DICT|INTERRES
   115   59   60 1    
   116   59  125 1    
   117   60   61 1    
   118   60   62 1    
   119   60  126 1    
   120   61  127 1    
   121   61  128 1    
   122   61  129 1    
   123   62   63 2    
   124   62   64 am   BACKBONE|DICT|INTERRES
   125   64   65 1    
   126   64  130 1    
   127   65   66 1    
   128   65   69 1    
   129   65  131 1    
   130   66   67 am   BACKBONE|DICT|INTERRES
   131   66   68 2    
   132   67  132 1    
   133   67  133 1    
   134   69   70 1    
   135   69  134 1    
   136   69  135 1    
   137   70   71 1    
   138   71  136 1    
   139   71  137 1    
@<TRIPOS>SUBSTRUCTURE
     1 UNK         1 GROUP             0       ****    0 ROOT    
