@<TRIPOS>MOLECULE
3R136
137   139    1
SMALL
USER_CHARGES


@<TRIPOS>ATOM
      1 CA         26.5396   18.6384   -1.9940 C.3       0 UNK        -0.1979 
      2 C          27.7053   19.5644   -2.3097 C.2       0 UNK         0.4864 
      3 O          28.3143   19.4389   -3.3738 O.2       0 UNK        -0.5359 
      4 N          28.0242   20.4859   -1.3911 N.am      1 UNK        -0.4318 
      5 CA         29.0678   21.5034   -1.5554 C.3       1 UNK         0.0824 
      6 C6         29.5424   22.0412   -0.1809 C.3       12 UNK        -0.0944 
      7 S7         31.2917   22.5712   -0.2029 S.3       12 UNK        -0.2672 
      8 C8         31.2124   24.2290    0.5511 C.3       12 UNK         0.0333 
      9 C9         31.2821   24.1973    2.0753 C.ar      12 UNK        -0.0807 
     10 C10        32.3074   24.8757    2.7421 C.ar      12 UNK        -0.0894 
     11 C11        32.3390   24.9265    4.1391 C.ar      12 UNK        -0.0804 
     12 C12        31.3698   24.2425    4.8764 C.ar      12 UNK        -0.0824 
     13 C13        30.3485   23.5483    4.2240 C.ar      12 UNK        -0.0762 
     14 C14        30.3024   23.5410    2.8276 C.ar      12 UNK        -0.0782 
     15 C15        29.2764   22.8250    5.0216 C.3       12 UNK         0.0230 
     16 S16        27.6973   23.7249    4.9737 S.3       12 UNK        -0.2608 
     17 C17        28.0785   25.2075    5.9721 C.3       12 UNK        -0.0989 
     18 CA         28.3932   26.4844    5.1381 C.3       5 UNK         0.0716 
     19 N          27.3882   26.6868    4.0848 N.am      5 UNK        -0.4135 
     20 C          27.4788   27.4669    3.0013 C.2       4 UNK         0.5031 
     21 O          28.3854   28.2799    2.7969 O.2       4 UNK        -0.5229 
     22 CA         26.3253   27.3440    1.9923 C.3       4 UNK         0.0329 
     23 CB         25.2356   28.3869    2.2907 C.3       4 UNK        -0.2001 
     24 N          26.7969   27.5104    0.6160 N.am      4 UNK        -0.4303 
     25 C          27.5503   26.6170   -0.0388 C.2       3 UNK         0.5044 
     26 O          27.8567   25.5091    0.4096 O.2       3 UNK        -0.5152 
     27 CA         28.0426   27.0385   -1.4292 C.3       3 UNK         0.0319 
     28 CB         29.1150   28.1392   -1.3357 C.3       3 UNK        -0.2001 
     29 N          28.5970   25.8806   -2.1258 N.am      3 UNK        -0.4354 
     30 C          28.6759   25.7399   -3.4539 C.2       2 UNK         0.4964 
     31 O          28.2624   26.5849   -4.2494 O.2       2 UNK        -0.5047 
     32 CA         29.3434   24.4662   -4.0113 C.3       2 UNK         0.0288 
     33 CB         30.6950   24.8125   -4.6599 C.3       2 UNK        -0.2113 
     34 N          29.5585   23.3941   -3.0338 N.am      2 UNK        -0.4145 
     35 C          28.5951   22.6371   -2.4935 C.2       1 UNK         0.5006 
     36 O          27.3915   22.8154   -2.7019 O.2       1 UNK        -0.5103 
     37 C          28.5818   27.7186    6.0574 C.2       5 UNK         0.5055 
     38 O          28.5313   27.5846    7.2826 O.2       5 UNK        -0.5220 
     39 N          28.7607   28.9026    5.4675 N.am      6 UNK        -0.4450 
     40 CA         28.8806   30.1882    6.1465 C.3       6 UNK         0.0367 
     41 CB         27.4848   30.6863    6.5885 C.3       6 UNK        -0.1929 
     42 C          29.6377   31.1658    5.2348 C.2       6 UNK         0.5070 
     43 O          30.5929   30.7632    4.5675 O.2       6 UNK        -0.5237 
     44 N          29.2008   32.4322    5.2031 N.am      7 UNK        -0.4739 
     45 CA         29.8077   33.5336    4.4470 C.3       7 UNK         0.0276 
     46 CB         29.0985   34.8460    4.8179 C.3       7 UNK        -0.1927 
     47 C          29.8178   33.3442    2.9188 C.2       7 UNK         0.5013 
     48 O          30.6547   33.9538    2.2537 O.2       7 UNK        -0.5193 
     49 N          28.9159   32.5020    2.3922 N.am      8 UNK        -0.4253 
     50 CA         28.8633   32.1163    0.9790 C.3       8 UNK         0.0242 
     51 CB         27.5634   31.3458    0.6987 C.3       8 UNK        -0.2000 
     52 C          30.0942   31.2944    0.5600 C.2       8 UNK         0.4948 
     53 O          30.7227   31.6146   -0.4491 O.2       8 UNK        -0.5275 
     54 N          30.4306   30.2729    1.3607 N.am      9 UNK        -0.4246 
     55 CA         31.6576   29.4838    1.2241 C.3       9 UNK         0.0261 
     56 CB         31.4656   28.1367    1.9324 C.3       9 UNK        -0.1959 
     57 C          32.9011   30.2021    1.7819 C.2       9 UNK         0.5033 
     58 O          34.0176   29.8273    1.4215 O.2       9 UNK        -0.5390 
     59 N          32.6790   31.2033    2.6452 N.am      10 UNK        -0.4215 
     60 CA         33.6543   31.9950    3.3984 C.3       10 UNK         0.0240 
     61 CB         34.6415   32.7343    2.4691 C.3       10 UNK        -0.1982 
     62 C          34.3351   31.1512    4.4889 C.2       10 UNK         0.4970 
     63 O          35.5642   31.1274    4.5803 O.2       10 UNK        -0.4916 
     64 N          33.5108   30.4813    5.3004 N.am      11 UNK        -0.4279 
     65 CA         33.9248   29.6572    6.4423 C.3       11 UNK         0.1003 
     66 C          32.9780   29.8442    7.6611 C.2       11 UNK         0.5709 
     67 N          33.2056   29.1210    8.7496 N.am      11 UNK        -0.7358 
     68 O          32.0576   30.6598    7.6491 O.2       11 UNK        -0.4999 
     69 C69        34.1656   28.1767    6.0330 C.3       12 UNK        -0.0954 
     70 S70        32.6822   27.3499    5.3729 S.3       12 UNK        -0.2268 
     71 C71        33.3900   25.7578    4.8546 C.3       12 UNK         0.0203 
     72 H72        26.1053   18.8479   -1.0165 H         1 UNK         0.0888 
     73 H73        25.7571   18.7522   -2.7438 H         1 UNK         0.0888 
     74 H74        26.8716   17.6006   -2.0017 H         1 UNK         0.0888 
     75 H75        27.4633   20.5636   -0.5550 H         1 UNK         0.3017 
     76 H76        29.9127   21.0093   -2.0414 H         1 UNK         0.0873 
     77 H77        28.8912   22.8451    0.1681 H         1 UNK         0.0745 
     78 H78        29.4755   21.2556    0.5738 H         1 UNK         0.0745 
     79 H79        32.0410   24.8150    0.1505 H         1 UNK         0.0705 
     80 H80        30.3079   24.7456    0.2353 H         1 UNK         0.0705 
     81 H81        33.0653   25.3961    2.1737 H         1 UNK         0.1334 
     82 H82        31.3952   24.2789    5.9570 H         1 UNK         0.1417 
     83 H83        29.4887   23.0311    2.3356 H         1 UNK         0.1562 
     84 H84        29.5863   22.6783    6.0576 H         1 UNK         0.0748 
     85 H85        29.1276   21.8281    4.6040 H         1 UNK         0.0748 
     86 H86        27.2133   25.3817    6.6151 H         1 UNK         0.0940 
     87 H87        28.9063   24.9825    6.6472 H         1 UNK         0.0940 
     88 H88        29.3509   26.3296    4.6368 H         1 UNK         0.0703 
     89 H89        26.5853   26.0797    4.1592 H         1 UNK         0.3081 
     90 H90        25.8851   26.3479    2.0789 H         1 UNK         0.0719 
     91 H91        24.8277   28.2485    3.2930 H         1 UNK         0.0809 
     92 H92        25.6185   29.4060    2.2372 H         1 UNK         0.0809 
     93 H93        24.4036   28.3036    1.5913 H         1 UNK         0.0809 
     94 H94        26.6077   28.3999    0.1798 H         1 UNK         0.2990 
     95 H95        27.1803   27.4148   -1.9839 H         1 UNK         0.0690 
     96 H96        29.4091   28.4941   -2.3235 H         1 UNK         0.0788 
     97 H97        30.0120   27.7811   -0.8310 H         1 UNK         0.0788 
     98 H98        28.7497   29.0025   -0.7820 H         1 UNK         0.0788 
     99 H99        28.8752   25.1193   -1.5211 H         1 UNK         0.2993 
    100 H100       28.6813   24.0801   -4.7896 H         1 UNK         0.0949 
    101 H101       31.1399   23.9415   -5.1417 H         1 UNK         0.0767 
    102 H102       30.5774   25.5782   -5.4282 H         1 UNK         0.0767 
    103 H103       31.4074   25.1935   -3.9269 H         1 UNK         0.0767 
    104 H104       30.5182   23.2005   -2.7827 H         1 UNK         0.3013 
    105 H105       28.8236   28.9192    4.4503 H         1 UNK         0.3121 
    106 H106       29.4997   30.0542    7.0354 H         1 UNK         0.0774 
    107 H107       26.8351   30.8812    5.7342 H         1 UNK         0.0815 
    108 H108       26.9841   29.9514    7.2189 H         1 UNK         0.0815 
    109 H109       27.5532   31.6008    7.1786 H         1 UNK         0.0815 
    110 H110       28.4048   32.6708    5.7772 H         1 UNK         0.2987 
    111 H111       30.8497   33.6093    4.7646 H         1 UNK         0.0949 
    112 H112       29.1745   35.0516    5.8858 H         1 UNK         0.0806 
    113 H113       29.5459   35.6934    4.2960 H         1 UNK         0.0806 
    114 H114       28.0407   34.8226    4.5531 H         1 UNK         0.0806 
    115 H115       28.2612   32.0568    3.0179 H         1 UNK         0.3010 
    116 H116       28.8525   33.0312    0.3823 H         1 UNK         0.0829 
    117 H117       27.5250   30.4089    1.2534 H         1 UNK         0.0813 
    118 H118       27.4762   31.1048   -0.3614 H         1 UNK         0.0813 
    119 H119       26.6857   31.9337    0.9681 H         1 UNK         0.0813 
    120 H120       29.8348   30.0413    2.1457 H         1 UNK         0.3038 
    121 H121       31.8388   29.2912    0.1646 H         1 UNK         0.0769 
    122 H122       30.6820   27.5401    1.4660 H         1 UNK         0.0811 
    123 H123       31.2008   28.2692    2.9818 H         1 UNK         0.0811 
    124 H124       32.3851   27.5545    1.8986 H         1 UNK         0.0811 
    125 H125       31.7172   31.3218    2.9432 H         1 UNK         0.3204 
    126 H126       33.0780   32.7579    3.9233 H         1 UNK         0.0748 
    127 H127       35.3101   32.0475    1.9496 H         1 UNK         0.0771 
    128 H128       34.1119   33.3211    1.7184 H         1 UNK         0.0771 
    129 H129       35.2666   33.4233    3.0382 H         1 UNK         0.0771 
    130 H130       32.5058   30.5588    5.1712 H         1 UNK         0.2980 
    131 H131       34.8788   30.0505    6.7982 H         1 UNK         0.0545 
    132 H132       33.9601   28.4544    8.7866 H         1 UNK         0.3459 
    133 H133       32.6044   29.2424    9.5492 H         1 UNK         0.3459 
    134 H134       34.5476   27.5954    6.8732 H         1 UNK         0.0616 
    135 H135       34.9439   28.1375    5.2692 H         1 UNK         0.0616 
    136 H136       34.2471   25.9349    4.2030 H         1 UNK         0.0634 
    137 H137       33.7630   25.2214    5.7283 H         1 UNK         0.0634 
@<TRIPOS>BOND
     1    1    2 1    
     2    1   72 1    
     3    1   73 1    
     4    1   74 1    
     5    2    3 2    
     6    2    4 am   BACKBONE|DICT|INTERRES
     7    4    5 1    
     8    4   75 1    
     9    5    6 1    
    10    5   35 1    
    11    5   76 1    
    12    6    7 1    
    13    6   77 1    
    14    6   78 1    
    15    7    8 1    
    16    8    9 1    
    17    8   79 1    
    18    8   80 1    
    19    9   10 ar   
    20    9   14 ar   
    21   10   11 ar   
    22   10   81 1    
    23   11   12 ar   
    24   11   71 1    
    25   12   13 ar   
    26   12   82 1    
    27   13   14 ar   
    28   13   15 1    
    29   14   83 1    
    30   15   16 1    
    31   15   84 1    
    32   15   85 1    
    33   16   17 1    
    34   17   18 1    
    35   17   86 1    
    36   17   87 1    
    37   18   19 1    
    38   18   37 1    
    39   18   88 1    
    40   19   20 am   BACKBONE|DICT|INTERRES
    41   19   89 1    
    42   20   21 2    
    43   20   22 1    
    44   22   23 1    
    45   22   24 1    
    46   22   90 1    
    47   23   91 1    
    48   23   92 1    
    49   23   93 1    
    50   24   25 am   BACKBONE|DICT|INTERRES
    51   24   94 1    
    52   25   26 2    
    53   25   27 1    
    54   27   28 1    
    55   27   29 1    
    56   27   95 1    
    57   28   96 1    
    58   28   97 1    
    59   28   98 1    
    60   29   30 am   BACKBONE|DICT|INTERRES
    61   29   99 1    
    62   30   31 2    
    63   30   32 1    
    64   32   33 1    
    65   32   34 1    
    66   32  100 1    
    67   33  101 1    
    68   33  102 1    
    69   33  103 1    
    70   34   35 am   BACKBONE|DICT|INTERRES
    71   34  104 1    
    72   35   36 2    
    73   37   38 2    
    74   37   39 am   BACKBONE|DICT|INTERRES
    75   39   40 1    
    76   39  105 1    
    77   40   41 1    
    78   40   42 1    
    79   40  106 1    
    80   41  107 1    
    81   41  108 1    
    82   41  109 1    
    83   42   43 2    
    84   42   44 am   BACKBONE|DICT|INTERRES
    85   44   45 1    
    86   44  110 1    
    87   45   46 1    
    88   45   47 1    
    89   45  111 1    
    90   46  112 1    
    91   46  113 1    
    92   46  114 1    
    93   47   48 2    
    94   47   49 am   BACKBONE|DICT|INTERRES
    95   49   50 1    
    96   49  115 1    
    97   50   51 1    
    98   50   52 1    
    99   50  116 1    
   100   51  117 1    
   101   51  118 1    
   102   51  119 1    
   103   52   53 2    
   104   52   54 am   BACKBONE|DICT|INTERRES
   105   54   55 1    
   106   54  120 1    
   107   55   56 1    
   108   55   57 1    
   109   55  121 1    
   110   56  122 1    
   111   56  123 1    
   112   56  124 1    
   113   57   58 2    
   114   57   59 am   BACKBONE|DICT|INTERRES
   115   59   60 1    
   116   59  125 1    
   117   60   61 1    
   118   60   62 1    
   119   60  126 1    
   120   61  127 1    
   121   61  128 1    
   122   61  129 1    
   123   62   63 2    
   124   62   64 am   BACKBONE|DICT|INTERRES
   125   64   65 1    
   126   64  130 1    
   127   65   66 1    
   128   65   69 1    
   129   65  131 1    
   130   66   67 am   BACKBONE|DICT|INTERRES
   131   66   68 2    
   132   67  132 1    
   133   67  133 1    
   134   69   70 1    
   135   69  134 1    
   136   69  135 1    
   137   70   71 1    
   138   71  136 1    
   139   71  137 1    
@<TRIPOS>SUBSTRUCTURE
     1 UNK         1 GROUP             0       ****    0 ROOT    
