@<TRIPOS>MOLECULE
3R136
137   139    1
SMALL
USER_CHARGES


@<TRIPOS>ATOM
      1 CA         29.6103   19.9403   -1.8922 C.3       0 UNK        -0.1979 
      2 C          29.1942   21.0973   -0.9975 C.2       0 UNK         0.4864 
      3 O          29.3411   22.2574   -1.3853 O.2       0 UNK        -0.5359 
      4 N          28.6649   20.7992    0.1962 N.am      1 UNK        -0.4318 
      5 CA         28.2405   21.7727    1.2116 C.3       1 UNK         0.0824 
      6 C6         28.2778   21.1785    2.6437 C.3       12 UNK        -0.0944 
      7 S7         29.9094   20.4954    3.0998 S.3       12 UNK        -0.2672 
      8 C8         30.6306   21.8311    4.1218 C.3       12 UNK         0.0333 
      9 C9         31.4273   22.9089    3.3783 C.ar      12 UNK        -0.0807 
     10 C10        32.0689   23.8897    4.1425 C.ar      12 UNK        -0.0894 
     11 C11        32.8495   24.8775    3.5362 C.ar      12 UNK        -0.0804 
     12 C12        32.9683   24.9002    2.1437 C.ar      12 UNK        -0.0824 
     13 C13        32.3278   23.9366    1.3578 C.ar      12 UNK        -0.0762 
     14 C14        31.5751   22.9377    1.9836 C.ar      12 UNK        -0.0782 
     15 C15        32.5039   23.9123   -0.1592 C.3       12 UNK         0.0230 
     16 S16        32.2871   25.5339   -0.9686 S.3       12 UNK        -0.2608 
     17 C17        30.4816   25.7880   -0.8857 C.3       12 UNK        -0.0989 
     18 CA         30.1194   27.1850   -0.3137 C.3       5 UNK         0.0716 
     19 N          28.8067   27.6373   -0.7775 N.am      5 UNK        -0.4135 
     20 C          28.5346   28.8663   -1.2385 C.2       4 UNK         0.5031 
     21 O          29.3755   29.7578   -1.3565 O.2       4 UNK        -0.5229 
     22 CA         27.0813   29.1635   -1.6598 C.3       4 UNK         0.0329 
     23 CB         26.9245   29.0088   -3.1814 C.3       4 UNK        -0.2001 
     24 N          26.0852   28.3244   -0.9897 N.am      4 UNK        -0.4303 
     25 C          25.7940   28.3835    0.3171 C.2       3 UNK         0.5044 
     26 O          26.2896   29.2012    1.0897 O.2       3 UNK        -0.5152 
     27 CA         24.8207   27.3234    0.8675 C.3       3 UNK         0.0319 
     28 CB         23.3853   27.8720    0.8844 C.3       3 UNK        -0.2001 
     29 N          24.8413   26.0349    0.1592 N.am      3 UNK        -0.4354 
     30 C          25.9292   25.2746   -0.0233 C.2       2 UNK         0.4964 
     31 O          27.0684   25.6224    0.3004 O.2       2 UNK        -0.5047 
     32 CA         25.7289   23.9259   -0.7292 C.3       2 UNK         0.0288 
     33 CB         25.7775   24.1087   -2.2546 C.3       2 UNK        -0.2113 
     34 N          26.7891   23.0029   -0.3302 N.am      2 UNK        -0.4145 
     35 C          26.8796   22.4178    0.8700 C.2       1 UNK         0.5006 
     36 O          25.9563   22.3993    1.6871 O.2       1 UNK        -0.5103 
     37 C          30.1761   27.1939    1.2230 C.2       5 UNK         0.5055 
     38 O          31.1463   27.6959    1.7835 O.2       5 UNK        -0.5220 
     39 N          29.1399   26.6380    1.8666 N.am      6 UNK        -0.4450 
     40 CA         29.0864   26.3574    3.3027 C.3       6 UNK         0.0367 
     41 CB         28.0502   25.2460    3.5406 C.3       6 UNK        -0.1929 
     42 C          28.8054   27.5747    4.2043 C.2       6 UNK         0.5070 
     43 O          28.8078   27.4152    5.4265 O.2       6 UNK        -0.5237 
     44 N          28.5415   28.7540    3.6244 N.am      7 UNK        -0.4739 
     45 CA         28.3662   30.0098    4.3604 C.3       7 UNK         0.0276 
     46 CB         27.8796   31.1054    3.3982 C.3       7 UNK        -0.1927 
     47 C          29.6689   30.4557    5.0437 C.2       7 UNK         0.5013 
     48 O          30.7371   30.3544    4.4389 O.2       7 UNK        -0.5193 
     49 N          29.5589   31.0143    6.2567 N.am      8 UNK        -0.4253 
     50 CA         30.6906   31.4886    7.0668 C.3       8 UNK         0.0242 
     51 CB         30.1715   31.9683    8.4321 C.3       8 UNK        -0.2000 
     52 C          31.5450   32.5851    6.4004 C.2       8 UNK         0.4948 
     53 O          32.7315   32.6920    6.7087 O.2       8 UNK        -0.5275 
     54 N          30.9369   33.3624    5.4937 N.am      9 UNK        -0.4246 
     55 CA         31.6144   34.3574    4.6607 C.3       9 UNK         0.0261 
     56 CB         30.5816   35.3913    4.1815 C.3       9 UNK        -0.1959 
     57 C          32.3554   33.7445    3.4556 C.2       9 UNK         0.5033 
     58 O          33.2438   34.4037    2.9131 O.2       9 UNK        -0.5390 
     59 N          31.9753   32.5280    3.0388 N.am      10 UNK        -0.4215 
     60 CA         32.5768   31.8053    1.9171 C.3       10 UNK         0.0240 
     61 CB         31.4842   31.0436    1.1486 C.3       10 UNK        -0.1982 
     62 C          33.6845   30.8552    2.3964 C.2       10 UNK         0.4970 
     63 O          34.7253   30.7764    1.7416 O.2       10 UNK        -0.4916 
     64 N          33.4596   30.1725    3.5277 N.am      11 UNK        -0.4279 
     65 CA         34.4523   29.3278    4.2089 C.3       11 UNK         0.1003 
     66 C          35.6881   30.1247    4.7141 C.2       11 UNK         0.5709 
     67 N          36.8471   29.4836    4.7886 N.am      11 UNK        -0.7358 
     68 O          35.6046   31.2980    5.0721 O.2       11 UNK        -0.4999 
     69 C69        33.8205   28.5112    5.3678 C.3       12 UNK        -0.0954 
     70 S70        32.5600   27.3323    4.7868 S.3       12 UNK        -0.2268 
     71 C71        33.5974   25.8956    4.3851 C.3       12 UNK         0.0203 
     72 H72        29.4288   18.9747   -1.4207 H         1 UNK         0.0888 
     73 H73        29.0538   19.9718   -2.8284 H         1 UNK         0.0888 
     74 H74        30.6726   20.0105   -2.1240 H         1 UNK         0.0888 
     75 H75        28.5527   19.8297    0.4576 H         1 UNK         0.3017 
     76 H76        28.9428   22.6067    1.1956 H         1 UNK         0.0873 
     77 H77        27.5460   20.3736    2.7350 H         1 UNK         0.0745 
     78 H78        27.9867   21.9285    3.3809 H         1 UNK         0.0745 
     79 H79        29.8457   22.3056    4.7122 H         1 UNK         0.0705 
     80 H80        31.3006   21.3572    4.8407 H         1 UNK         0.0705 
     81 H81        31.9779   23.8742    5.2203 H         1 UNK         0.1334 
     82 H82        33.5686   25.6656    1.6711 H         1 UNK         0.1417 
     83 H83        31.1285   22.1700    1.3704 H         1 UNK         0.1562 
     84 H84        31.8198   23.1992   -0.6215 H         1 UNK         0.0748 
     85 H85        33.5100   23.5526   -0.3777 H         1 UNK         0.0748 
     86 H86        30.0020   24.9805   -0.3275 H         1 UNK         0.0940 
     87 H87        30.1085   25.6957   -1.9070 H         1 UNK         0.0940 
     88 H88        30.8734   27.8937   -0.6641 H         1 UNK         0.0703 
     89 H89        28.0440   26.9785   -0.6600 H         1 UNK         0.3081 
     90 H90        26.8737   30.2036   -1.3989 H         1 UNK         0.0719 
     91 H91        27.6343   29.6443   -3.7132 H         1 UNK         0.0809 
     92 H92        27.1017   27.9820   -3.5043 H         1 UNK         0.0809 
     93 H93        25.9260   29.2980   -3.5097 H         1 UNK         0.0809 
     94 H94        25.6224   27.6242   -1.5505 H         1 UNK         0.2990 
     95 H95        25.1204   27.1254    1.8989 H         1 UNK         0.0690 
     96 H96        23.3352   28.8184    1.4252 H         1 UNK         0.0788 
     97 H97        22.7016   27.1827    1.3803 H         1 UNK         0.0788 
     98 H98        23.0100   28.0526   -0.1238 H         1 UNK         0.0788 
     99 H99        23.9485   25.6861   -0.1602 H         1 UNK         0.2993 
    100 H100       24.7621   23.5069   -0.4415 H         1 UNK         0.0949 
    101 H101       25.6482   23.1569   -2.7705 H         1 UNK         0.0767 
    102 H102       24.9824   24.7720   -2.5978 H         1 UNK         0.0767 
    103 H103       26.7263   24.5382   -2.5802 H         1 UNK         0.0767 
    104 H104       27.6177   22.9700   -0.9186 H         1 UNK         0.3013 
    105 H105       28.3677   26.2678    1.3149 H         1 UNK         0.3121 
    106 H106       30.0628   25.9713    3.6007 H         1 UNK         0.0774 
    107 H107       28.0116   24.9602    4.5925 H         1 UNK         0.0815 
    108 H108       27.0476   25.5598    3.2474 H         1 UNK         0.0815 
    109 H109       28.3014   24.3503    2.9746 H         1 UNK         0.0815 
    110 H110       28.5565   28.8076    2.6163 H         1 UNK         0.2987 
    111 H111       27.6034   29.8506    5.1255 H         1 UNK         0.0949 
    112 H112       27.7963   32.0684    3.9037 H         1 UNK         0.0806 
    113 H113       28.5593   31.2357    2.5550 H         1 UNK         0.0806 
    114 H114       26.8927   30.8710    3.0011 H         1 UNK         0.0806 
    115 H115       28.6441   31.0816    6.6800 H         1 UNK         0.3010 
    116 H116       31.3478   30.6321    7.2331 H         1 UNK         0.0829 
    117 H117       29.4791   32.8049    8.3301 H         1 UNK         0.0813 
    118 H118       29.6582   31.1685    8.9663 H         1 UNK         0.0813 
    119 H119       30.9937   32.3020    9.0670 H         1 UNK         0.0813 
    120 H120       29.9514   33.2210    5.3277 H         1 UNK         0.3038 
    121 H121       32.3566   34.8770    5.2710 H         1 UNK         0.0769 
    122 H122       29.8074   34.9343    3.5637 H         1 UNK         0.0811 
    123 H123       31.0577   36.1696    3.5832 H         1 UNK         0.0811 
    124 H124       30.0942   35.8853    5.0223 H         1 UNK         0.0811 
    125 H125       31.3067   32.0017    3.5923 H         1 UNK         0.3204 
    126 H126       33.0301   32.5162    1.2228 H         1 UNK         0.0748 
    127 H127       31.9104   30.4664    0.3270 H         1 UNK         0.0771 
    128 H128       30.9486   30.3441    1.7900 H         1 UNK         0.0771 
    129 H129       30.7515   31.7264    0.7183 H         1 UNK         0.0771 
    130 H130       32.5447   30.2325    3.9666 H         1 UNK         0.2980 
    131 H131       34.8173   28.6224    3.4602 H         1 UNK         0.0545 
    132 H132       37.6578   29.9784    5.1264 H         1 UNK         0.3459 
    133 H133       36.9308   28.5190    4.5086 H         1 UNK         0.3459 
    134 H134       33.3524   29.1817    6.0909 H         1 UNK         0.0616 
    135 H135       34.5809   27.9533    5.9177 H         1 UNK         0.0616 
    136 H136       34.4912   26.2286    3.8558 H         1 UNK         0.0634 
    137 H137       33.9431   25.4330    5.3106 H         1 UNK         0.0634 
@<TRIPOS>BOND
     1    1    2 1    
     2    1   72 1    
     3    1   73 1    
     4    1   74 1    
     5    2    3 2    
     6    2    4 am   BACKBONE|DICT|INTERRES
     7    4    5 1    
     8    4   75 1    
     9    5    6 1    
    10    5   35 1    
    11    5   76 1    
    12    6    7 1    
    13    6   77 1    
    14    6   78 1    
    15    7    8 1    
    16    8    9 1    
    17    8   79 1    
    18    8   80 1    
    19    9   10 ar   
    20    9   14 ar   
    21   10   11 ar   
    22   10   81 1    
    23   11   12 ar   
    24   11   71 1    
    25   12   13 ar   
    26   12   82 1    
    27   13   14 ar   
    28   13   15 1    
    29   14   83 1    
    30   15   16 1    
    31   15   84 1    
    32   15   85 1    
    33   16   17 1    
    34   17   18 1    
    35   17   86 1    
    36   17   87 1    
    37   18   19 1    
    38   18   37 1    
    39   18   88 1    
    40   19   20 am   BACKBONE|DICT|INTERRES
    41   19   89 1    
    42   20   21 2    
    43   20   22 1    
    44   22   23 1    
    45   22   24 1    
    46   22   90 1    
    47   23   91 1    
    48   23   92 1    
    49   23   93 1    
    50   24   25 am   BACKBONE|DICT|INTERRES
    51   24   94 1    
    52   25   26 2    
    53   25   27 1    
    54   27   28 1    
    55   27   29 1    
    56   27   95 1    
    57   28   96 1    
    58   28   97 1    
    59   28   98 1    
    60   29   30 am   BACKBONE|DICT|INTERRES
    61   29   99 1    
    62   30   31 2    
    63   30   32 1    
    64   32   33 1    
    65   32   34 1    
    66   32  100 1    
    67   33  101 1    
    68   33  102 1    
    69   33  103 1    
    70   34   35 am   BACKBONE|DICT|INTERRES
    71   34  104 1    
    72   35   36 2    
    73   37   38 2    
    74   37   39 am   BACKBONE|DICT|INTERRES
    75   39   40 1    
    76   39  105 1    
    77   40   41 1    
    78   40   42 1    
    79   40  106 1    
    80   41  107 1    
    81   41  108 1    
    82   41  109 1    
    83   42   43 2    
    84   42   44 am   BACKBONE|DICT|INTERRES
    85   44   45 1    
    86   44  110 1    
    87   45   46 1    
    88   45   47 1    
    89   45  111 1    
    90   46  112 1    
    91   46  113 1    
    92   46  114 1    
    93   47   48 2    
    94   47   49 am   BACKBONE|DICT|INTERRES
    95   49   50 1    
    96   49  115 1    
    97   50   51 1    
    98   50   52 1    
    99   50  116 1    
   100   51  117 1    
   101   51  118 1    
   102   51  119 1    
   103   52   53 2    
   104   52   54 am   BACKBONE|DICT|INTERRES
   105   54   55 1    
   106   54  120 1    
   107   55   56 1    
   108   55   57 1    
   109   55  121 1    
   110   56  122 1    
   111   56  123 1    
   112   56  124 1    
   113   57   58 2    
   114   57   59 am   BACKBONE|DICT|INTERRES
   115   59   60 1    
   116   59  125 1    
   117   60   61 1    
   118   60   62 1    
   119   60  126 1    
   120   61  127 1    
   121   61  128 1    
   122   61  129 1    
   123   62   63 2    
   124   62   64 am   BACKBONE|DICT|INTERRES
   125   64   65 1    
   126   64  130 1    
   127   65   66 1    
   128   65   69 1    
   129   65  131 1    
   130   66   67 am   BACKBONE|DICT|INTERRES
   131   66   68 2    
   132   67  132 1    
   133   67  133 1    
   134   69   70 1    
   135   69  134 1    
   136   69  135 1    
   137   70   71 1    
   138   71  136 1    
   139   71  137 1    
@<TRIPOS>SUBSTRUCTURE
     1 UNK         1 GROUP             0       ****    0 ROOT    
