@<TRIPOS>MOLECULE
3R136
137   139    1
SMALL
USER_CHARGES


@<TRIPOS>ATOM
      1 CA         33.4048   24.7744   -2.7901 C.3       0 UNK        -0.1979 
      2 C          32.5401   24.0360   -1.7792 C.2       0 UNK         0.4864 
      3 O          33.0473   23.6111   -0.7426 O.2       0 UNK        -0.5359 
      4 N          31.2458   23.8886   -2.0776 N.am      1 UNK        -0.4318 
      5 CA         30.2075   23.2973   -1.2343 C.3       1 UNK         0.0824 
      6 C6         30.3614   21.7593   -1.0406 C.3       12 UNK        -0.0944 
      7 S7         29.3002   21.0506    0.2745 S.3       12 UNK        -0.2672 
      8 C8         30.4073   20.9785    1.7155 C.3       12 UNK         0.0333 
      9 C9         30.4669   22.3045    2.4609 C.ar      12 UNK        -0.0807 
     10 C10        31.5335   23.1808    2.2478 C.ar      12 UNK        -0.0894 
     11 C11        31.6353   24.3779    2.9607 C.ar      12 UNK        -0.0804 
     12 C12        30.6535   24.6756    3.9133 C.ar      12 UNK        -0.0824 
     13 C13        29.5795   23.8134    4.1469 C.ar      12 UNK        -0.0762 
     14 C14        29.4859   22.6314    3.4038 C.ar      12 UNK        -0.0782 
     15 C15        28.5739   24.1110    5.2582 C.3       12 UNK         0.0230 
     16 S16        27.5861   25.6221    4.9831 S.3       12 UNK        -0.2608 
     17 C17        28.6797   26.9543    5.6252 C.3       12 UNK        -0.0989 
     18 CA         29.0715   28.0629    4.5931 C.3       5 UNK         0.0716 
     19 N          29.0069   27.5846    3.2109 N.am      5 UNK        -0.4135 
     20 C          29.1999   28.2604    2.0711 C.2       4 UNK         0.5031 
     21 O          29.5335   29.4450    1.9995 O.2       4 UNK        -0.5229 
     22 CA         28.9611   27.4752    0.7695 C.3       4 UNK         0.0329 
     23 CB         30.2940   26.9311    0.2302 C.3       4 UNK        -0.2001 
     24 N          28.0047   26.3700    0.9151 N.am      4 UNK        -0.4303 
     25 C          26.6968   26.5116    1.1823 C.2       3 UNK         0.5044 
     26 O          26.1342   27.6012    1.2888 O.2       3 UNK        -0.5152 
     27 CA         25.8998   25.2047    1.3654 C.3       3 UNK         0.0319 
     28 CB         24.3872   25.4350    1.5723 C.3       3 UNK        -0.2001 
     29 N          26.1487   24.2435    0.2846 N.am      3 UNK        -0.4354 
     30 C          25.8844   24.3996   -1.0236 C.2       2 UNK         0.4964 
     31 O          25.3127   25.3770   -1.5090 O.2       2 UNK        -0.5047 
     32 CA         26.3875   23.2615   -1.9327 C.3       2 UNK         0.0288 
     33 CB         26.1439   23.5170   -3.4365 C.3       2 UNK        -0.2113 
     34 N          27.7983   22.9564   -1.6591 N.am      2 UNK        -0.4145 
     35 C          28.8532   23.7711   -1.8067 C.2       1 UNK         0.5006 
     36 O          28.7911   24.8770   -2.3498 O.2       1 UNK        -0.5103 
     37 C          28.2538   29.3554    4.7982 C.2       5 UNK         0.5055 
     38 O          27.0252   29.2995    4.8745 O.2       5 UNK        -0.5220 
     39 N          28.9676   30.4874    4.8698 N.am      6 UNK        -0.4450 
     40 CA         28.4858   31.8636    5.0364 C.3       6 UNK         0.0367 
     41 CB         27.6925   32.0292    6.3500 C.3       6 UNK        -0.1929 
     42 C          27.7292   32.4240    3.8151 C.2       6 UNK         0.5070 
     43 O          27.1449   33.5037    3.9186 O.2       6 UNK        -0.5237 
     44 N          27.7713   31.7150    2.6804 N.am      7 UNK        -0.4739 
     45 CA         27.1875   32.1330    1.4053 C.3       7 UNK         0.0276 
     46 CB         26.3055   31.0026    0.8528 C.3       7 UNK        -0.1927 
     47 C          28.2859   32.4936    0.3975 C.2       7 UNK         0.5013 
     48 O          28.1516   33.4968   -0.3043 O.2       7 UNK        -0.5193 
     49 N          29.3464   31.6774    0.3488 N.am      8 UNK        -0.4253 
     50 CA         30.4968   31.8384   -0.5394 C.3       8 UNK         0.0242 
     51 CB         30.5350   30.6637   -1.5313 C.3       8 UNK        -0.2000 
     52 C          31.8191   31.9270    0.2368 C.2       8 UNK         0.4948 
     53 O          32.7459   32.5732   -0.2546 O.2       8 UNK        -0.5275 
     54 N          31.9044   31.2978    1.4169 N.am      9 UNK        -0.4246 
     55 CA         33.0935   31.2842    2.2665 C.3       9 UNK         0.0261 
     56 CB         34.0771   30.2099    1.7636 C.3       9 UNK        -0.1959 
     57 C          32.6830   31.0187    3.7181 C.2       9 UNK         0.5033 
     58 O          31.5690   30.5539    3.9665 O.2       9 UNK        -0.5390 
     59 N          33.5930   31.3015    4.6587 N.am      10 UNK        -0.4215 
     60 CA         33.4080   31.0079    6.0841 C.3       10 UNK         0.0240 
     61 CB         34.4839   31.7361    6.9064 C.3       10 UNK        -0.1982 
     62 C          33.4214   29.4982    6.3862 C.2       10 UNK         0.4970 
     63 O          32.6652   29.0538    7.2510 O.2       10 UNK        -0.4916 
     64 N          34.2622   28.7521    5.6536 N.am      11 UNK        -0.4279 
     65 CA         34.4345   27.2919    5.7366 C.3       11 UNK         0.1003 
     66 C          34.9510   26.8140    7.1306 C.2       11 UNK         0.5709 
     67 N          34.7509   25.5550    7.4993 N.am      11 UNK        -0.7358 
     68 O          35.5931   27.5631    7.8657 O.2       11 UNK        -0.4999 
     69 C69        33.1838   26.5244    5.2143 C.3       12 UNK        -0.0954 
     70 S70        32.7862   26.9385    3.4783 S.3       12 UNK        -0.2268 
     71 C71        32.8330   25.2929    2.6813 C.3       12 UNK         0.0203 
     72 H72        34.2167   24.1316   -3.1292 H         1 UNK         0.0888 
     73 H73        32.8338   25.0890   -3.6636 H         1 UNK         0.0888 
     74 H74        33.8406   25.6619   -2.3321 H         1 UNK         0.0888 
     75 H75        30.8744   24.3175   -2.9167 H         1 UNK         0.3017 
     76 H76        30.2941   23.7692   -0.2544 H         1 UNK         0.0873 
     77 H77        30.1515   21.2382   -1.9764 H         1 UNK         0.0745 
     78 H78        31.3965   21.5127   -0.8025 H         1 UNK         0.0745 
     79 H79        31.4040   20.6592    1.4069 H         1 UNK         0.0705 
     80 H80        30.0432   20.2037    2.3919 H         1 UNK         0.0705 
     81 H81        32.2987   22.9207    1.5306 H         1 UNK         0.1334 
     82 H82        30.7302   25.5755    4.4949 H         1 UNK         0.1417 
     83 H83        28.6704   21.9436    3.5830 H         1 UNK         0.1562 
     84 H84        29.0966   24.1795    6.2132 H         1 UNK         0.0748 
     85 H85        27.8782   23.2771    5.3628 H         1 UNK         0.0748 
     86 H86        29.5827   26.5111    6.0432 H         1 UNK         0.0940 
     87 H87        28.1865   27.3826    6.5006 H         1 UNK         0.0940 
     88 H88        30.1201   28.3115    4.7726 H         1 UNK         0.0703 
     89 H89        28.6924   26.6293    3.1283 H         1 UNK         0.3081 
     90 H90        28.5567   28.1782    0.0383 H         1 UNK         0.0719 
     91 H91        30.6641   26.1034    0.8337 H         1 UNK         0.0809 
     92 H92        30.1923   26.5812   -0.7964 H         1 UNK         0.0809 
     93 H93        31.0682   27.6997    0.2315 H         1 UNK         0.0809 
     94 H94        28.3746   25.4362    0.8268 H         1 UNK         0.2990 
     95 H95        26.2826   24.7432    2.2769 H         1 UNK         0.0690 
     96 H96        23.8594   24.4938    1.7249 H         1 UNK         0.0788 
     97 H97        23.9315   25.9424    0.7216 H         1 UNK         0.0788 
     98 H98        24.2066   26.0537    2.4523 H         1 UNK         0.0788 
     99 H99        26.6154   23.3924    0.5656 H         1 UNK         0.2993 
    100 H100       25.8165   22.3734   -1.6567 H         1 UNK         0.0949 
    101 H101       26.6305   24.4293   -3.7824 H         1 UNK         0.0767 
    102 H102       26.5122   22.6898   -4.0434 H         1 UNK         0.0767 
    103 H103       25.0783   23.6220   -3.6438 H         1 UNK         0.0767 
    104 H104       27.9752   22.0710   -1.1973 H         1 UNK         0.3013 
    105 H105       29.9677   30.4197    4.6624 H         1 UNK         0.3121 
    106 H106       29.3868   32.4727    5.1234 H         1 UNK         0.0774 
    107 H107       27.4858   33.0809    6.5517 H         1 UNK         0.0815 
    108 H108       26.7323   31.5143    6.3126 H         1 UNK         0.0815 
    109 H109       28.2501   31.6417    7.2025 H         1 UNK         0.0815 
    110 H110       28.2983   30.8477    2.6801 H         1 UNK         0.2987 
    111 H111       26.5585   33.0155    1.5420 H         1 UNK         0.0949 
    112 H112       25.8243   31.3023   -0.0790 H         1 UNK         0.0806 
    113 H113       26.8836   30.1018    0.6456 H         1 UNK         0.0806 
    114 H114       25.5163   30.7350    1.5556 H         1 UNK         0.0806 
    115 H115       29.3663   30.8680    0.9662 H         1 UNK         0.3010 
    116 H116       30.4051   32.7634   -1.1127 H         1 UNK         0.0829 
    117 H117       29.6304   30.6298   -2.1386 H         1 UNK         0.0813 
    118 H118       31.3810   30.7552   -2.2139 H         1 UNK         0.0813 
    119 H119       30.6300   29.7066   -1.0190 H         1 UNK         0.0813 
    120 H120       31.1148   30.7839    1.7979 H         1 UNK         0.3038 
    121 H121       33.5727   32.2651    2.2309 H         1 UNK         0.0769 
    122 H122       33.6125   29.2238    1.7403 H         1 UNK         0.0811 
    123 H123       34.9590   30.1426    2.4012 H         1 UNK         0.0811 
    124 H124       34.4275   30.4338    0.7560 H         1 UNK         0.0811 
    125 H125       34.4787   31.7012    4.3825 H         1 UNK         0.3204 
    126 H126       32.4317   31.3949    6.3852 H         1 UNK         0.0748 
    127 H127       34.3514   31.5482    7.9729 H         1 UNK         0.0771 
    128 H128       35.4898   31.4078    6.6412 H         1 UNK         0.0771 
    129 H129       34.4322   32.8153    6.7606 H         1 UNK         0.0771 
    130 H130       34.8538   29.2194    4.9848 H         1 UNK         0.2980 
    131 H131       35.2573   27.0646    5.0582 H         1 UNK         0.0545 
    132 H132       34.2513   24.9102    6.9084 H         1 UNK         0.3459 
    133 H133       35.1068   25.2458    8.3902 H         1 UNK         0.3459 
    134 H134       32.3136   26.7461    5.8335 H         1 UNK         0.0616 
    135 H135       33.3345   25.4465    5.2785 H         1 UNK         0.0616 
    136 H136       33.7510   24.7820    2.9744 H         1 UNK         0.0634 
    137 H137       32.9048   25.4509    1.6043 H         1 UNK         0.0634 
@<TRIPOS>BOND
     1    1    2 1    
     2    1   72 1    
     3    1   73 1    
     4    1   74 1    
     5    2    3 2    
     6    2    4 am   BACKBONE|DICT|INTERRES
     7    4    5 1    
     8    4   75 1    
     9    5    6 1    
    10    5   35 1    
    11    5   76 1    
    12    6    7 1    
    13    6   77 1    
    14    6   78 1    
    15    7    8 1    
    16    8    9 1    
    17    8   79 1    
    18    8   80 1    
    19    9   10 ar   
    20    9   14 ar   
    21   10   11 ar   
    22   10   81 1    
    23   11   12 ar   
    24   11   71 1    
    25   12   13 ar   
    26   12   82 1    
    27   13   14 ar   
    28   13   15 1    
    29   14   83 1    
    30   15   16 1    
    31   15   84 1    
    32   15   85 1    
    33   16   17 1    
    34   17   18 1    
    35   17   86 1    
    36   17   87 1    
    37   18   19 1    
    38   18   37 1    
    39   18   88 1    
    40   19   20 am   BACKBONE|DICT|INTERRES
    41   19   89 1    
    42   20   21 2    
    43   20   22 1    
    44   22   23 1    
    45   22   24 1    
    46   22   90 1    
    47   23   91 1    
    48   23   92 1    
    49   23   93 1    
    50   24   25 am   BACKBONE|DICT|INTERRES
    51   24   94 1    
    52   25   26 2    
    53   25   27 1    
    54   27   28 1    
    55   27   29 1    
    56   27   95 1    
    57   28   96 1    
    58   28   97 1    
    59   28   98 1    
    60   29   30 am   BACKBONE|DICT|INTERRES
    61   29   99 1    
    62   30   31 2    
    63   30   32 1    
    64   32   33 1    
    65   32   34 1    
    66   32  100 1    
    67   33  101 1    
    68   33  102 1    
    69   33  103 1    
    70   34   35 am   BACKBONE|DICT|INTERRES
    71   34  104 1    
    72   35   36 2    
    73   37   38 2    
    74   37   39 am   BACKBONE|DICT|INTERRES
    75   39   40 1    
    76   39  105 1    
    77   40   41 1    
    78   40   42 1    
    79   40  106 1    
    80   41  107 1    
    81   41  108 1    
    82   41  109 1    
    83   42   43 2    
    84   42   44 am   BACKBONE|DICT|INTERRES
    85   44   45 1    
    86   44  110 1    
    87   45   46 1    
    88   45   47 1    
    89   45  111 1    
    90   46  112 1    
    91   46  113 1    
    92   46  114 1    
    93   47   48 2    
    94   47   49 am   BACKBONE|DICT|INTERRES
    95   49   50 1    
    96   49  115 1    
    97   50   51 1    
    98   50   52 1    
    99   50  116 1    
   100   51  117 1    
   101   51  118 1    
   102   51  119 1    
   103   52   53 2    
   104   52   54 am   BACKBONE|DICT|INTERRES
   105   54   55 1    
   106   54  120 1    
   107   55   56 1    
   108   55   57 1    
   109   55  121 1    
   110   56  122 1    
   111   56  123 1    
   112   56  124 1    
   113   57   58 2    
   114   57   59 am   BACKBONE|DICT|INTERRES
   115   59   60 1    
   116   59  125 1    
   117   60   61 1    
   118   60   62 1    
   119   60  126 1    
   120   61  127 1    
   121   61  128 1    
   122   61  129 1    
   123   62   63 2    
   124   62   64 am   BACKBONE|DICT|INTERRES
   125   64   65 1    
   126   64  130 1    
   127   65   66 1    
   128   65   69 1    
   129   65  131 1    
   130   66   67 am   BACKBONE|DICT|INTERRES
   131   66   68 2    
   132   67  132 1    
   133   67  133 1    
   134   69   70 1    
   135   69  134 1    
   136   69  135 1    
   137   70   71 1    
   138   71  136 1    
   139   71  137 1    
@<TRIPOS>SUBSTRUCTURE
     1 UNK         1 GROUP             0       ****    0 ROOT    
