@<TRIPOS>MOLECULE
3R136
137   139    1
SMALL
USER_CHARGES


@<TRIPOS>ATOM
      1 CA         27.0351   20.2712   -2.1507 C.3       0 UNK        -0.1979 
      2 C          27.7547   19.6448   -0.9580 C.2       0 UNK         0.4864 
      3 O          27.5389   18.4659   -0.6816 O.2       0 UNK        -0.5359 
      4 N          28.6190   20.3671   -0.2283 N.am      1 UNK        -0.4318 
      5 CA         28.9601   21.7886   -0.3812 C.3       1 UNK         0.0824 
      6 C6         30.1667   22.1761    0.5016 C.3       12 UNK        -0.0944 
      7 S7         31.7215   21.3949   -0.0522 S.3       12 UNK        -0.2672 
      8 C8         32.8551   21.7652    1.3315 C.3       12 UNK         0.0333 
      9 C9         32.7263   23.2064    1.8038 C.ar      12 UNK        -0.0807 
     10 C10        33.2408   24.2551    1.0362 C.ar      12 UNK        -0.0894 
     11 C11        33.0279   25.5837    1.4180 C.ar      12 UNK        -0.0804 
     12 C12        32.2960   25.8567    2.5787 C.ar      12 UNK        -0.0824 
     13 C13        31.8115   24.8140    3.3727 C.ar      12 UNK        -0.0762 
     14 C14        32.0357   23.4919    2.9840 C.ar      12 UNK        -0.0782 
     15 C15        31.0240   25.1008    4.6399 C.3       12 UNK         0.0230 
     16 S16        29.2468   24.8502    4.3463 S.3       12 UNK        -0.2608 
     17 C17        28.5610   26.5006    4.7059 C.3       12 UNK        -0.0989 
     18 CA         28.9512   27.5976    3.6823 C.3       5 UNK         0.0716 
     19 N          28.7166   27.1838    2.2963 N.am      5 UNK        -0.4135 
     20 C          29.1963   27.8212    1.2176 C.2       4 UNK         0.5031 
     21 O          29.9003   28.8290    1.2714 O.2       4 UNK        -0.5229 
     22 CA         28.7687   27.2810   -0.1602 C.3       4 UNK         0.0329 
     23 CB         29.7699   26.2255   -0.6491 C.3       4 UNK        -0.2001 
     24 N          27.4118   26.7216   -0.1740 N.am      4 UNK        -0.4303 
     25 C          26.3091   27.3996    0.1830 C.2       3 UNK         0.5044 
     26 O          26.3222   28.5871    0.5082 O.2       3 UNK        -0.5152 
     27 CA         24.9743   26.6374    0.2488 C.3       3 UNK         0.0319 
     28 CB         24.1202   26.9536   -0.9887 C.3       3 UNK        -0.2001 
     29 N          25.0934   25.1837    0.3923 N.am      3 UNK        -0.4354 
     30 C          25.7203   24.5269    1.3799 C.2       2 UNK         0.4964 
     31 O          26.3234   25.0830    2.2988 O.2       2 UNK        -0.5047 
     32 CA         25.6859   22.9855    1.3170 C.3       2 UNK         0.0288 
     33 CB         24.5676   22.4273    0.4065 C.3       2 UNK        -0.2113 
     34 N          26.9703   22.3838    0.9342 N.am      2 UNK        -0.4145 
     35 C          27.7619   22.7195   -0.0983 C.2       1 UNK         0.5006 
     36 O          27.5627   23.6806   -0.8439 O.2       1 UNK        -0.5103 
     37 C          28.2326   28.9160    4.0378 C.2       5 UNK         0.5055 
     38 O          28.6956   29.6278    4.9283 O.2       5 UNK        -0.5220 
     39 N          27.1115   29.2115    3.3639 N.am      6 UNK        -0.4450 
     40 CA         26.3643   30.4589    3.5219 C.3       6 UNK         0.0367 
     41 CB         24.8743   30.2108    3.2341 C.3       6 UNK        -0.1929 
     42 C          26.9235   31.5539    2.6029 C.2       6 UNK         0.5070 
     43 O          27.0138   32.7071    3.0238 O.2       6 UNK        -0.5237 
     44 N          27.2902   31.1753    1.3696 N.am      7 UNK        -0.4739 
     45 CA         27.8601   32.0633    0.3543 C.3       7 UNK         0.0276 
     46 CB         27.9244   31.3248   -0.9917 C.3       7 UNK        -0.1927 
     47 C          29.2445   32.6133    0.7355 C.2       7 UNK         0.5013 
     48 O          29.5105   33.7901    0.4863 O.2       7 UNK        -0.5193 
     49 N          30.0894   31.7660    1.3348 N.am      8 UNK        -0.4253 
     50 CA         31.4227   32.1137    1.8109 C.3       8 UNK         0.0242 
     51 CB         32.4716   31.4948    0.8689 C.3       8 UNK        -0.2000 
     52 C          31.5594   31.6096    3.2505 C.2       8 UNK         0.4948 
     53 O          32.0031   30.4833    3.4656 O.2       8 UNK        -0.5275 
     54 N          31.1814   32.4530    4.2204 N.am      9 UNK        -0.4246 
     55 CA         31.1897   32.1407    5.6573 C.3       9 UNK         0.0261 
     56 CB         30.5821   33.3205    6.4335 C.3       9 UNK        -0.1959 
     57 C          32.5691   31.7655    6.2371 C.2       9 UNK         0.5033 
     58 O          32.6263   31.0494    7.2376 O.2       9 UNK        -0.5390 
     59 N          33.6489   32.2461    5.6059 N.am      10 UNK        -0.4215 
     60 CA         35.0338   31.9152    5.9501 C.3       10 UNK         0.0240 
     61 CB         35.9504   33.0459    5.4526 C.3       10 UNK        -0.1982 
     62 C          35.5029   30.5593    5.3850 C.2       10 UNK         0.4970 
     63 O          36.5283   30.0524    5.8421 O.2       10 UNK        -0.4916 
     64 N          34.7864   30.0109    4.3953 N.am      11 UNK        -0.4279 
     65 CA         35.0911   28.7294    3.7483 C.3       11 UNK         0.1003 
     66 C          34.6524   27.5280    4.6306 C.2       11 UNK         0.5709 
     67 N          35.3992   26.4326    4.6056 N.am      11 UNK        -0.7358 
     68 O          33.6359   27.5713    5.3209 O.2       11 UNK        -0.4999 
     69 C69        34.4628   28.7040    2.3320 C.3       12 UNK        -0.0954 
     70 S70        35.1111   27.4073    1.2275 S.3       12 UNK        -0.2268 
     71 C71        33.5653   26.7163    0.5559 C.3       12 UNK         0.0203 
     72 H72        27.6926   20.9135   -2.7346 H         1 UNK         0.0888 
     73 H73        26.6664   19.4936   -2.8194 H         1 UNK         0.0888 
     74 H74        26.1781   20.8550   -1.8170 H         1 UNK         0.0888 
     75 H75        29.1041   19.8975    0.5227 H         1 UNK         0.3017 
     76 H76        29.2499   21.9551   -1.4204 H         1 UNK         0.0873 
     77 H77        30.3245   23.2543    0.4776 H         1 UNK         0.0745 
     78 H78        29.9826   21.9157    1.5457 H         1 UNK         0.0745 
     79 H79        33.8811   21.5715    1.0155 H         1 UNK         0.0705 
     80 H80        32.6507   21.0730    2.1499 H         1 UNK         0.0705 
     81 H81        33.7783   24.0343    0.1240 H         1 UNK         0.1334 
     82 H82        32.1058   26.8793    2.8707 H         1 UNK         0.1417 
     83 H83        31.6333   22.6861    3.5830 H         1 UNK         0.1562 
     84 H84        31.2229   26.1119    4.9978 H         1 UNK         0.0748 
     85 H85        31.3510   24.4299    5.4354 H         1 UNK         0.0748 
     86 H86        28.8698   26.7902    5.7125 H         1 UNK         0.0940 
     87 H87        27.4751   26.3897    4.7453 H         1 UNK         0.0940 
     88 H88        30.0208   27.7932    3.7825 H         1 UNK         0.0703 
     89 H89        28.1280   26.3678    2.1712 H         1 UNK         0.3081 
     90 H90        28.7821   28.1140   -0.8645 H         1 UNK         0.0719 
     91 H91        30.7674   26.6537   -0.7525 H         1 UNK         0.0809 
     92 H92        29.4869   25.8212   -1.6211 H         1 UNK         0.0809 
     93 H93        29.8441   25.3972    0.0537 H         1 UNK         0.0809 
     94 H94        27.3216   25.7412   -0.4211 H         1 UNK         0.2990 
     95 H95        24.4451   27.0042    1.1306 H         1 UNK         0.0690 
     96 H96        23.1253   26.5150   -0.9086 H         1 UNK         0.0788 
     97 H97        24.5818   26.5790   -1.9033 H         1 UNK         0.0788 
     98 H98        23.9878   28.0303   -1.1077 H         1 UNK         0.0788 
     99 H99        24.6607   24.6281   -0.3314 H         1 UNK         0.2993 
    100 H100       25.4779   22.6526    2.3353 H         1 UNK         0.0949 
    101 H101       23.5925   22.8326    0.6812 H         1 UNK         0.0767 
    102 H102       24.7402   22.6517   -0.6469 H         1 UNK         0.0767 
    103 H103       24.4962   21.3434    0.4999 H         1 UNK         0.0767 
    104 H104       27.2562   21.5935    1.4952 H         1 UNK         0.3013 
    105 H105       26.8179   28.6025    2.6107 H         1 UNK         0.3121 
    106 H106       26.4518   30.8077    4.5534 H         1 UNK         0.0774 
    107 H107       24.2948   31.1232    3.3805 H         1 UNK         0.0815 
    108 H108       24.7039   29.8801    2.2091 H         1 UNK         0.0815 
    109 H109       24.4623   29.4550    3.9028 H         1 UNK         0.0815 
    110 H110       27.1136   30.2149    1.0863 H         1 UNK         0.2987 
    111 H111       27.1854   32.9152    0.2446 H         1 UNK         0.0949 
    112 H112       26.9429   30.9576   -1.2925 H         1 UNK         0.0806 
    113 H113       28.2811   31.9863   -1.7823 H         1 UNK         0.0806 
    114 H114       28.6030   30.4729   -0.9496 H         1 UNK         0.0806 
    115 H115       29.8109   30.7979    1.4793 H         1 UNK         0.3010 
    116 H116       31.5679   33.1961    1.8172 H         1 UNK         0.0829 
    117 H117       32.3857   31.9030   -0.1380 H         1 UNK         0.0813 
    118 H118       33.4826   31.7042    1.2194 H         1 UNK         0.0813 
    119 H119       32.3618   30.4116    0.7977 H         1 UNK         0.0813 
    120 H120       30.8096   33.3551    3.9583 H         1 UNK         0.3038 
    121 H121       30.5444   31.2728    5.8020 H         1 UNK         0.0769 
    122 H122       31.1632   34.2339    6.3011 H         1 UNK         0.0811 
    123 H123       30.5480   33.1079    7.5031 H         1 UNK         0.0811 
    124 H124       29.5592   33.5208    6.1138 H         1 UNK         0.0811 
    125 H125       33.5061   32.8419    4.8036 H         1 UNK         0.3204 
    126 H126       35.1221   31.8618    7.0375 H         1 UNK         0.0748 
    127 H127       36.9897   32.8550    5.7244 H         1 UNK         0.0771 
    128 H128       35.9119   33.1508    4.3675 H         1 UNK         0.0771 
    129 H129       35.6744   34.0040    5.8937 H         1 UNK         0.0771 
    130 H130       33.8915   30.4157    4.1417 H         1 UNK         0.2980 
    131 H131       36.1752   28.6780    3.6272 H         1 UNK         0.0545 
    132 H132       36.2148   26.3749    4.0167 H         1 UNK         0.3459 
    133 H133       35.1220   25.6389    5.1601 H         1 UNK         0.3459 
    134 H134       33.3784   28.6347    2.3971 H         1 UNK         0.0616 
    135 H135       34.6653   29.6506    1.8299 H         1 UNK         0.0616 
    136 H136       32.8140   27.5006    0.4500 H         1 UNK         0.0634 
    137 H137       33.7623   26.3547   -0.4544 H         1 UNK         0.0634 
@<TRIPOS>BOND
     1    1    2 1    
     2    1   72 1    
     3    1   73 1    
     4    1   74 1    
     5    2    3 2    
     6    2    4 am   BACKBONE|DICT|INTERRES
     7    4    5 1    
     8    4   75 1    
     9    5    6 1    
    10    5   35 1    
    11    5   76 1    
    12    6    7 1    
    13    6   77 1    
    14    6   78 1    
    15    7    8 1    
    16    8    9 1    
    17    8   79 1    
    18    8   80 1    
    19    9   10 ar   
    20    9   14 ar   
    21   10   11 ar   
    22   10   81 1    
    23   11   12 ar   
    24   11   71 1    
    25   12   13 ar   
    26   12   82 1    
    27   13   14 ar   
    28   13   15 1    
    29   14   83 1    
    30   15   16 1    
    31   15   84 1    
    32   15   85 1    
    33   16   17 1    
    34   17   18 1    
    35   17   86 1    
    36   17   87 1    
    37   18   19 1    
    38   18   37 1    
    39   18   88 1    
    40   19   20 am   BACKBONE|DICT|INTERRES
    41   19   89 1    
    42   20   21 2    
    43   20   22 1    
    44   22   23 1    
    45   22   24 1    
    46   22   90 1    
    47   23   91 1    
    48   23   92 1    
    49   23   93 1    
    50   24   25 am   BACKBONE|DICT|INTERRES
    51   24   94 1    
    52   25   26 2    
    53   25   27 1    
    54   27   28 1    
    55   27   29 1    
    56   27   95 1    
    57   28   96 1    
    58   28   97 1    
    59   28   98 1    
    60   29   30 am   BACKBONE|DICT|INTERRES
    61   29   99 1    
    62   30   31 2    
    63   30   32 1    
    64   32   33 1    
    65   32   34 1    
    66   32  100 1    
    67   33  101 1    
    68   33  102 1    
    69   33  103 1    
    70   34   35 am   BACKBONE|DICT|INTERRES
    71   34  104 1    
    72   35   36 2    
    73   37   38 2    
    74   37   39 am   BACKBONE|DICT|INTERRES
    75   39   40 1    
    76   39  105 1    
    77   40   41 1    
    78   40   42 1    
    79   40  106 1    
    80   41  107 1    
    81   41  108 1    
    82   41  109 1    
    83   42   43 2    
    84   42   44 am   BACKBONE|DICT|INTERRES
    85   44   45 1    
    86   44  110 1    
    87   45   46 1    
    88   45   47 1    
    89   45  111 1    
    90   46  112 1    
    91   46  113 1    
    92   46  114 1    
    93   47   48 2    
    94   47   49 am   BACKBONE|DICT|INTERRES
    95   49   50 1    
    96   49  115 1    
    97   50   51 1    
    98   50   52 1    
    99   50  116 1    
   100   51  117 1    
   101   51  118 1    
   102   51  119 1    
   103   52   53 2    
   104   52   54 am   BACKBONE|DICT|INTERRES
   105   54   55 1    
   106   54  120 1    
   107   55   56 1    
   108   55   57 1    
   109   55  121 1    
   110   56  122 1    
   111   56  123 1    
   112   56  124 1    
   113   57   58 2    
   114   57   59 am   BACKBONE|DICT|INTERRES
   115   59   60 1    
   116   59  125 1    
   117   60   61 1    
   118   60   62 1    
   119   60  126 1    
   120   61  127 1    
   121   61  128 1    
   122   61  129 1    
   123   62   63 2    
   124   62   64 am   BACKBONE|DICT|INTERRES
   125   64   65 1    
   126   64  130 1    
   127   65   66 1    
   128   65   69 1    
   129   65  131 1    
   130   66   67 am   BACKBONE|DICT|INTERRES
   131   66   68 2    
   132   67  132 1    
   133   67  133 1    
   134   69   70 1    
   135   69  134 1    
   136   69  135 1    
   137   70   71 1    
   138   71  136 1    
   139   71  137 1    
@<TRIPOS>SUBSTRUCTURE
     1 UNK         1 GROUP             0       ****    0 ROOT    
