@<TRIPOS>MOLECULE
3R136
137   139    1
SMALL
USER_CHARGES


@<TRIPOS>ATOM
      1 CA         25.4087   23.4527    2.0905 C.3       0 UNK        -0.1979 
      2 C          26.3004   22.5968    2.9877 C.2       0 UNK         0.4864 
      3 O          25.8758   22.2337    4.0829 O.2       0 UNK        -0.5359 
      4 N          27.5272   22.2382    2.5801 N.am      1 UNK        -0.4318 
      5 CA         28.2216   22.6433    1.3519 C.3       1 UNK         0.0824 
      6 C6         29.4500   21.7416    1.0564 C.3       12 UNK        -0.0944 
      7 S7         30.6375   21.6031    2.4448 S.3       12 UNK        -0.2672 
      8 C8         32.2509   21.7006    1.6033 C.3       12 UNK         0.0333 
      9 C9         32.5345   23.0832    1.0307 C.ar      12 UNK        -0.0807 
     10 C10        32.8680   24.1442    1.8784 C.ar      12 UNK        -0.0894 
     11 C11        33.1423   25.4115    1.3538 C.ar      12 UNK        -0.0804 
     12 C12        33.1051   25.6063   -0.0297 C.ar      12 UNK        -0.0824 
     13 C13        32.7659   24.5553   -0.8892 C.ar      12 UNK        -0.0762 
     14 C14        32.4850   23.2961   -0.3502 C.ar      12 UNK        -0.0782 
     15 C15        32.6985   24.7626   -2.4005 C.3       12 UNK         0.0230 
     16 S16        31.7803   26.2587   -2.9016 S.3       12 UNK        -0.2608 
     17 C17        30.2228   26.0661   -1.9677 C.3       12 UNK        -0.0989 
     18 CA         29.1647   27.1660   -2.2378 C.3       5 UNK         0.0716 
     19 N          27.9568   26.9004   -1.4593 N.am      5 UNK        -0.4135 
     20 C          26.7512   27.4457   -1.6662 C.2       4 UNK         0.5031 
     21 O          26.5115   28.2854   -2.5336 O.2       4 UNK        -0.5229 
     22 CA         25.6158   26.9577   -0.7546 C.3       4 UNK         0.0329 
     23 CB         25.1503   25.5510   -1.1690 C.3       4 UNK        -0.2001 
     24 N          26.0447   26.9358    0.6445 N.am      4 UNK        -0.4303 
     25 C          25.6958   27.8475    1.5622 C.2       3 UNK         0.5044 
     26 O          24.9102   28.7693    1.3430 O.2       3 UNK        -0.5152 
     27 CA         26.3147   27.7277    2.9705 C.3       3 UNK         0.0319 
     28 CB         25.2558   27.2716    3.9875 C.3       3 UNK        -0.2001 
     29 N          27.4708   26.8317    3.0588 N.am      3 UNK        -0.4354 
     30 C          28.6634   27.0532    2.4908 C.2       2 UNK         0.4964 
     31 O          28.9224   28.0317    1.7901 O.2       2 UNK        -0.5047 
     32 CA         29.7152   25.9495    2.6728 C.3       2 UNK         0.0288 
     33 CB         30.3625   26.0298    4.0644 C.3       2 UNK        -0.2113 
     34 N          29.1935   24.5953    2.4724 N.am      2 UNK        -0.4145 
     35 C          28.5908   24.1392    1.3655 C.2       1 UNK         0.5006 
     36 O          28.2783   24.8521    0.4105 O.2       1 UNK        -0.5103 
     37 C          29.6985   28.5933   -1.9927 C.2       5 UNK         0.5055 
     38 O          29.7791   29.3827   -2.9361 O.2       5 UNK        -0.5220 
     39 N          30.0701   28.8898   -0.7405 N.am      6 UNK        -0.4450 
     40 CA         30.6812   30.1609   -0.3435 C.3       6 UNK         0.0367 
     41 CB         31.7287   29.8893    0.7480 C.3       6 UNK        -0.1929 
     42 C          29.6490   31.1782    0.1627 C.2       6 UNK         0.5070 
     43 O          29.9425   32.3736    0.1631 O.2       6 UNK        -0.5237 
     44 N          28.4839   30.6855    0.6097 N.am      7 UNK        -0.4739 
     45 CA         27.4110   31.4215    1.2903 C.3       7 UNK         0.0276 
     46 CB         26.8018   32.5123    0.3836 C.3       7 UNK        -0.1927 
     47 C          27.8393   31.9456    2.6758 C.2       7 UNK         0.5013 
     48 O          27.3180   32.9624    3.1373 O.2       7 UNK        -0.5193 
     49 N          28.7698   31.2319    3.3209 N.am      8 UNK        -0.4253 
     50 CA         29.3008   31.5190    4.6470 C.3       8 UNK         0.0242 
     51 CB         30.4244   32.5664    4.5531 C.3       8 UNK        -0.2000 
     52 C          29.8281   30.2074    5.2292 C.2       8 UNK         0.4948 
     53 O          30.4389   29.4274    4.4940 O.2       8 UNK        -0.5275 
     54 N          29.5956   29.9926    6.5305 N.am      9 UNK        -0.4246 
     55 CA         30.0450   28.8132    7.2743 C.3       9 UNK         0.0261 
     56 CB         29.4616   28.8522    8.6957 C.3       9 UNK        -0.1959 
     57 C          31.5784   28.7258    7.3221 C.2       9 UNK         0.5033 
     58 O          32.2382   29.7501    7.5166 O.2       9 UNK        -0.5390 
     59 N          32.1107   27.5120    7.1146 N.am      10 UNK        -0.4215 
     60 CA         33.5432   27.1822    7.0334 C.3       10 UNK         0.0240 
     61 CB         34.1993   27.2900    8.4268 C.3       10 UNK        -0.1982 
     62 C          34.3085   27.9826    5.9547 C.2       10 UNK         0.4970 
     63 O          35.5074   28.2204    6.1085 O.2       10 UNK        -0.4916 
     64 N          33.5910   28.3896    4.8978 N.am      11 UNK        -0.4279 
     65 CA         34.0416   29.2713    3.8108 C.3       11 UNK         0.1003 
     66 C          34.2238   30.7603    4.2420 C.2       11 UNK         0.5709 
     67 N          33.7547   31.1871    5.4099 N.am      11 UNK        -0.7358 
     68 O          34.7735   31.5599    3.4884 O.2       11 UNK        -0.4999 
     69 C69        35.2679   28.7256    3.0098 C.3       12 UNK        -0.0954 
     70 S70        35.1830   27.0451    2.2757 S.3       12 UNK        -0.2268 
     71 C71        33.4240   26.5873    2.2758 C.3       12 UNK         0.0203 
     72 H72        25.4012   23.0911    1.0633 H         1 UNK         0.0888 
     73 H73        24.3794   23.4290    2.4480 H         1 UNK         0.0888 
     74 H74        25.7354   24.4900    2.0986 H         1 UNK         0.0888 
     75 H75        28.0782   21.6536    3.1935 H         1 UNK         0.3017 
     76 H76        27.5321   22.5021    0.5178 H         1 UNK         0.0873 
     77 H77        29.1057   20.7326    0.8243 H         1 UNK         0.0745 
     78 H78        29.9611   22.0833    0.1552 H         1 UNK         0.0745 
     79 H79        33.0332   21.4456    2.3196 H         1 UNK         0.0705 
     80 H80        32.2950   20.9381    0.8239 H         1 UNK         0.0705 
     81 H81        32.8984   23.9830    2.9472 H         1 UNK         0.1334 
     82 H82        33.3196   26.5854   -0.4363 H         1 UNK         0.1417 
     83 H83        32.2300   22.4763   -1.0081 H         1 UNK         0.1562 
     84 H84        32.2350   23.9021   -2.8857 H         1 UNK         0.0748 
     85 H85        33.7145   24.8262   -2.7921 H         1 UNK         0.0748 
     86 H86        30.4552   26.0312   -0.9024 H         1 UNK         0.0940 
     87 H87        29.8044   25.0877   -2.2108 H         1 UNK         0.0940 
     88 H88        28.8898   27.1029   -3.2930 H         1 UNK         0.0703 
     89 H89        28.0486   26.1825   -0.7433 H         1 UNK         0.3081 
     90 H90        24.7712   27.6380   -0.8841 H         1 UNK         0.0719 
     91 H91        24.8216   25.5407   -2.2091 H         1 UNK         0.0809 
     92 H92        24.3078   25.2206   -0.5611 H         1 UNK         0.0809 
     93 H93        25.9435   24.8091   -1.0707 H         1 UNK         0.0809 
     94 H94        26.7296   26.2355    0.8965 H         1 UNK         0.2990 
     95 H95        26.6504   28.7268    3.2566 H         1 UNK         0.0690 
     96 H96        25.6542   27.2709    5.0024 H         1 UNK         0.0788 
     97 H97        24.8886   26.2682    3.7688 H         1 UNK         0.0788 
     98 H98        24.3943   27.9410    3.9826 H         1 UNK         0.0788 
     99 H99        27.3554   25.9950    3.6115 H         1 UNK         0.2993 
    100 H100       30.4853   26.1117    1.9176 H         1 UNK         0.0949 
    101 H101       31.0959   25.2370    4.2106 H         1 UNK         0.0767 
    102 H102       30.8849   26.9754    4.1920 H         1 UNK         0.0767 
    103 H103       29.6237   25.9507    4.8628 H         1 UNK         0.0767 
    104 H104       29.4015   23.9218    3.1960 H         1 UNK         0.3013 
    105 H105       29.8907   28.2270    0.0051 H         1 UNK         0.3121 
    106 H106       31.1942   30.6088   -1.1975 H         1 UNK         0.0774 
    107 H107       32.5155   29.2294    0.3828 H         1 UNK         0.0815 
    108 H108       32.2081   30.8150    1.0698 H         1 UNK         0.0815 
    109 H109       31.2806   29.4319    1.6312 H         1 UNK         0.0815 
    110 H110       28.3969   29.6758    0.6283 H         1 UNK         0.2987 
    111 H111       26.6240   30.6962    1.4868 H         1 UNK         0.0949 
    112 H112       26.5188   32.1071   -0.5879 H         1 UNK         0.0806 
    113 H113       25.9012   32.9325    0.8327 H         1 UNK         0.0806 
    114 H114       27.4934   33.3382    0.2165 H         1 UNK         0.0806 
    115 H115       29.1319   30.3839    2.8990 H         1 UNK         0.3010 
    116 H116       28.4978   31.8970    5.2835 H         1 UNK         0.0829 
    117 H117       30.0540   33.5138    4.1616 H         1 UNK         0.0813 
    118 H118       30.8571   32.7658    5.5343 H         1 UNK         0.0813 
    119 H119       31.2326   32.2289    3.9024 H         1 UNK         0.0813 
    120 H120       29.1255   30.7077    7.0660 H         1 UNK         0.3038 
    121 H121       29.6531   27.9321    6.7615 H         1 UNK         0.0769 
    122 H122       29.8055   29.7276    9.2486 H         1 UNK         0.0811 
    123 H123       29.7596   27.9707    9.2650 H         1 UNK         0.0811 
    124 H124       28.3717   28.8715    8.6786 H         1 UNK         0.0811 
    125 H125       31.4803   26.7344    6.9735 H         1 UNK         0.3204 
    126 H126       33.5993   26.1378    6.7228 H         1 UNK         0.0748 
    127 H127       33.6562   26.7035    9.1678 H         1 UNK         0.0771 
    128 H128       35.2240   26.9165    8.4098 H         1 UNK         0.0771 
    129 H129       34.2350   28.3222    8.7771 H         1 UNK         0.0771 
    130 H130       32.5972   28.2093    4.9046 H         1 UNK         0.2980 
    131 H131       33.1995   29.3170    3.1242 H         1 UNK         0.0545 
    132 H132       33.2815   30.5617    6.0544 H         1 UNK         0.3459 
    133 H133       33.8808   32.1543    5.6593 H         1 UNK         0.3459 
    134 H134       35.4745   29.3952    2.1733 H         1 UNK         0.0616 
    135 H135       36.1645   28.7625    3.6298 H         1 UNK         0.0616 
    136 H136       33.1249   26.3407    3.2932 H         1 UNK         0.0634 
    137 H137       32.8133   27.4302    1.9570 H         1 UNK         0.0634 
@<TRIPOS>BOND
     1    1    2 1    
     2    1   72 1    
     3    1   73 1    
     4    1   74 1    
     5    2    3 2    
     6    2    4 am   BACKBONE|DICT|INTERRES
     7    4    5 1    
     8    4   75 1    
     9    5    6 1    
    10    5   35 1    
    11    5   76 1    
    12    6    7 1    
    13    6   77 1    
    14    6   78 1    
    15    7    8 1    
    16    8    9 1    
    17    8   79 1    
    18    8   80 1    
    19    9   10 ar   
    20    9   14 ar   
    21   10   11 ar   
    22   10   81 1    
    23   11   12 ar   
    24   11   71 1    
    25   12   13 ar   
    26   12   82 1    
    27   13   14 ar   
    28   13   15 1    
    29   14   83 1    
    30   15   16 1    
    31   15   84 1    
    32   15   85 1    
    33   16   17 1    
    34   17   18 1    
    35   17   86 1    
    36   17   87 1    
    37   18   19 1    
    38   18   37 1    
    39   18   88 1    
    40   19   20 am   BACKBONE|DICT|INTERRES
    41   19   89 1    
    42   20   21 2    
    43   20   22 1    
    44   22   23 1    
    45   22   24 1    
    46   22   90 1    
    47   23   91 1    
    48   23   92 1    
    49   23   93 1    
    50   24   25 am   BACKBONE|DICT|INTERRES
    51   24   94 1    
    52   25   26 2    
    53   25   27 1    
    54   27   28 1    
    55   27   29 1    
    56   27   95 1    
    57   28   96 1    
    58   28   97 1    
    59   28   98 1    
    60   29   30 am   BACKBONE|DICT|INTERRES
    61   29   99 1    
    62   30   31 2    
    63   30   32 1    
    64   32   33 1    
    65   32   34 1    
    66   32  100 1    
    67   33  101 1    
    68   33  102 1    
    69   33  103 1    
    70   34   35 am   BACKBONE|DICT|INTERRES
    71   34  104 1    
    72   35   36 2    
    73   37   38 2    
    74   37   39 am   BACKBONE|DICT|INTERRES
    75   39   40 1    
    76   39  105 1    
    77   40   41 1    
    78   40   42 1    
    79   40  106 1    
    80   41  107 1    
    81   41  108 1    
    82   41  109 1    
    83   42   43 2    
    84   42   44 am   BACKBONE|DICT|INTERRES
    85   44   45 1    
    86   44  110 1    
    87   45   46 1    
    88   45   47 1    
    89   45  111 1    
    90   46  112 1    
    91   46  113 1    
    92   46  114 1    
    93   47   48 2    
    94   47   49 am   BACKBONE|DICT|INTERRES
    95   49   50 1    
    96   49  115 1    
    97   50   51 1    
    98   50   52 1    
    99   50  116 1    
   100   51  117 1    
   101   51  118 1    
   102   51  119 1    
   103   52   53 2    
   104   52   54 am   BACKBONE|DICT|INTERRES
   105   54   55 1    
   106   54  120 1    
   107   55   56 1    
   108   55   57 1    
   109   55  121 1    
   110   56  122 1    
   111   56  123 1    
   112   56  124 1    
   113   57   58 2    
   114   57   59 am   BACKBONE|DICT|INTERRES
   115   59   60 1    
   116   59  125 1    
   117   60   61 1    
   118   60   62 1    
   119   60  126 1    
   120   61  127 1    
   121   61  128 1    
   122   61  129 1    
   123   62   63 2    
   124   62   64 am   BACKBONE|DICT|INTERRES
   125   64   65 1    
   126   64  130 1    
   127   65   66 1    
   128   65   69 1    
   129   65  131 1    
   130   66   67 am   BACKBONE|DICT|INTERRES
   131   66   68 2    
   132   67  132 1    
   133   67  133 1    
   134   69   70 1    
   135   69  134 1    
   136   69  135 1    
   137   70   71 1    
   138   71  136 1    
   139   71  137 1    
@<TRIPOS>SUBSTRUCTURE
     1 UNK         1 GROUP             0       ****    0 ROOT    
