@<TRIPOS>MOLECULE
3R136
137   139    1
SMALL
USER_CHARGES


@<TRIPOS>ATOM
      1 CA         28.3966   20.8151    5.3483 C.3       0 UNK        -0.1979 
      2 C          28.6930   22.0237    4.4737 C.2       0 UNK         0.4864 
      3 O          29.0700   23.0729    4.9976 O.2       0 UNK        -0.5359 
      4 N          28.5040   21.8855    3.1528 N.am      1 UNK        -0.4318 
      5 CA         28.7572   22.8570    2.0728 C.3       1 UNK         0.0824 
      6 C6         30.2378   23.2992    1.9454 C.3       12 UNK        -0.0944 
      7 S7         31.3877   21.9176    1.6292 S.3       12 UNK        -0.2672 
      8 C8         31.9572   22.2676   -0.0741 C.3       12 UNK         0.0333 
      9 C9         32.5949   23.6465   -0.2419 C.ar      12 UNK        -0.0807 
     10 C10        33.5367   24.1195    0.6775 C.ar      12 UNK        -0.0894 
     11 C11        34.0793   25.4014    0.5482 C.ar      12 UNK        -0.0804 
     12 C12        33.6999   26.2036   -0.5322 C.ar      12 UNK        -0.0824 
     13 C13        32.7702   25.7408   -1.4676 C.ar      12 UNK        -0.0762 
     14 C14        32.2288   24.4585   -1.3211 C.ar      12 UNK        -0.0782 
     15 C15        32.3598   26.6277   -2.6369 C.3       12 UNK         0.0230 
     16 S16        31.1103   27.8705   -2.1656 S.3       12 UNK        -0.2608 
     17 C17        29.6139   26.8350   -1.9985 C.3       12 UNK        -0.0989 
     18 CA         28.5753   27.3758   -0.9805 C.3       5 UNK         0.0716 
     19 N          27.3991   26.5161   -0.9169 N.am      5 UNK        -0.4135 
     20 C          26.4041   26.5147   -1.8118 C.2       4 UNK         0.5031 
     21 O          26.3341   27.3034   -2.7554 O.2       4 UNK        -0.5229 
     22 CA         25.3073   25.4521   -1.6486 C.3       4 UNK         0.0329 
     23 CB         25.7760   24.1105   -2.2369 C.3       4 UNK        -0.2001 
     24 N          24.9435   25.2590   -0.2450 N.am      4 UNK        -0.4303 
     25 C          23.7898   25.6492    0.3132 C.2       3 UNK         0.5044 
     26 O          22.8810   26.2060   -0.3044 O.2       3 UNK        -0.5152 
     27 CA         23.6004   25.3643    1.8164 C.3       3 UNK         0.0319 
     28 CB         22.8028   24.0658    2.0183 C.3       3 UNK        -0.2001 
     29 N          24.8559   25.2756    2.5667 N.am      3 UNK        -0.4354 
     30 C          25.6879   26.3035    2.7834 C.2       2 UNK         0.4964 
     31 O          25.4640   27.4557    2.4125 O.2       2 UNK        -0.5047 
     32 CA         26.9987   25.9988    3.5279 C.3       2 UNK         0.0288 
     33 CB         26.7885   26.1652    5.0413 C.3       2 UNK        -0.2113 
     34 N          27.6101   24.6875    3.2736 N.am      2 UNK        -0.4145 
     35 C          27.8415   24.0998    2.0913 C.2       1 UNK         0.5006 
     36 O          27.3724   24.4991    1.0245 O.2       1 UNK        -0.5103 
     37 C          29.1341   27.5050    0.4449 C.2       5 UNK         0.5055 
     38 O          29.7814   26.5793    0.9316 O.2       5 UNK        -0.5220 
     39 N          28.8765   28.6502    1.0878 N.am      6 UNK        -0.4450 
     40 CA         29.4714   29.0142    2.3780 C.3       6 UNK         0.0367 
     41 CB         28.4424   29.8055    3.2017 C.3       6 UNK        -0.1929 
     42 C          30.7703   29.8267    2.2167 C.2       6 UNK         0.5070 
     43 O          31.4141   30.1229    3.2257 O.2       6 UNK        -0.5237 
     44 N          31.1216   30.1996    0.9750 N.am      7 UNK        -0.4739 
     45 CA         32.2115   31.1085    0.5993 C.3       7 UNK         0.0276 
     46 CB         33.5861   30.4546    0.8612 C.3       7 UNK        -0.1927 
     47 C          32.0189   32.4841    1.2667 C.2       7 UNK         0.5013 
     48 O          30.9233   33.0417    1.1754 O.2       7 UNK        -0.5193 
     49 N          33.0373   32.9886    1.9744 N.am      8 UNK        -0.4253 
     50 CA         32.9808   34.2119    2.7826 C.3       8 UNK         0.0242 
     51 CB         34.4032   34.7929    2.8990 C.3       8 UNK        -0.2000 
     52 C          32.3225   33.9732    4.1608 C.2       8 UNK         0.4948 
     53 O          32.8412   34.4487    5.1724 O.2       8 UNK        -0.5275 
     54 N          31.2058   33.2273    4.1732 N.am      9 UNK        -0.4246 
     55 CA         30.4361   32.7671    5.3372 C.3       9 UNK         0.0261 
     56 CB         29.6942   33.9493    5.9960 C.3       9 UNK        -0.1959 
     57 C          31.2987   31.9633    6.3323 C.2       9 UNK         0.5033 
     58 O          31.2927   32.2561    7.5306 O.2       9 UNK        -0.5390 
     59 N          32.0508   30.9890    5.8052 N.am      10 UNK        -0.4215 
     60 CA         33.0624   30.2279    6.5414 C.3       10 UNK         0.0240 
     61 CB         34.4569   30.7755    6.1900 C.3       10 UNK        -0.1982 
     62 C          32.9975   28.7169    6.2777 C.2       10 UNK         0.4970 
     63 O          33.2708   27.9471    7.2000 O.2       10 UNK        -0.4916 
     64 N          32.6701   28.3077    5.0462 N.am      11 UNK        -0.4279 
     65 CA         32.5971   26.8951    4.6461 C.3       11 UNK         0.1003 
     66 C          31.2874   26.2116    5.1184 C.2       11 UNK         0.5709 
     67 N          31.3152   24.8969    5.2872 N.am      11 UNK        -0.7358 
     68 O          30.2487   26.8475    5.2830 O.2       11 UNK        -0.4999 
     69 C69        32.7779   26.7181    3.1189 C.3       12 UNK        -0.0954 
     70 S70        34.3776   27.3542    2.5113 S.3       12 UNK        -0.2268 
     71 C71        35.0498   25.9264    1.5984 C.3       12 UNK         0.0203 
     72 H72        29.2913   20.5246    5.8982 H         1 UNK         0.0888 
     73 H73        27.6165   21.0570    6.0696 H         1 UNK         0.0888 
     74 H74        28.0649   19.9577    4.7631 H         1 UNK         0.0888 
     75 H75        28.1667   20.9922    2.8219 H         1 UNK         0.3017 
     76 H76        28.5047   22.3259    1.1534 H         1 UNK         0.0873 
     77 H77        30.5667   23.8160    2.8470 H         1 UNK         0.0745 
     78 H78        30.3396   24.0281    1.1403 H         1 UNK         0.0745 
     79 H79        31.1065   22.1533   -0.7478 H         1 UNK         0.0705 
     80 H80        32.6847   21.5083   -0.3634 H         1 UNK         0.0705 
     81 H81        33.8229   23.4981    1.5148 H         1 UNK         0.1334 
     82 H82        34.1126   27.1981   -0.6315 H         1 UNK         0.1417 
     83 H83        31.5100   24.0965   -2.0432 H         1 UNK         0.1562 
     84 H84        31.9799   26.0260   -3.4642 H         1 UNK         0.0748 
     85 H85        33.2394   27.1465   -3.0210 H         1 UNK         0.0748 
     86 H86        29.8959   25.8198   -1.7211 H         1 UNK         0.0940 
     87 H87        29.1592   26.7566   -2.9872 H         1 UNK         0.0940 
     88 H88        28.2623   28.3683   -1.3126 H         1 UNK         0.0703 
     89 H89        27.4052   25.8257   -0.1664 H         1 UNK         0.3081 
     90 H90        24.4403   25.7842   -2.2238 H         1 UNK         0.0719 
     91 H91        26.0579   24.2203   -3.2850 H         1 UNK         0.0809 
     92 H92        26.6418   23.7137   -1.7048 H         1 UNK         0.0809 
     93 H93        24.9846   23.3622   -2.1914 H         1 UNK         0.0809 
     94 H94        25.6561   24.8461    0.3506 H         1 UNK         0.2990 
     95 H95        23.0194   26.1897    2.2334 H         1 UNK         0.0690 
     96 H96        22.5856   23.8923    3.0725 H         1 UNK         0.0788 
     97 H97        23.3417   23.1972    1.6373 H         1 UNK         0.0788 
     98 H98        21.8460   24.1103    1.4958 H         1 UNK         0.0788 
     99 H99        25.1232   24.3639    2.9087 H         1 UNK         0.2993 
    100 H100       27.7286   26.7408    3.2029 H         1 UNK         0.0949 
    101 H101       26.3990   27.1569    5.2763 H         1 UNK         0.0767 
    102 H102       26.0815   25.4325    5.4323 H         1 UNK         0.0767 
    103 H103       27.7237   26.0491    5.5887 H         1 UNK         0.0767 
    104 H104       28.0693   24.2497    4.0710 H         1 UNK         0.3013 
    105 H105       28.2985   29.3491    0.6417 H         1 UNK         0.3121 
    106 H106       29.7231   28.1118    2.9378 H         1 UNK         0.0774 
    107 H107       28.8080   29.9725    4.2153 H         1 UNK         0.0815 
    108 H108       28.2310   30.7806    2.7610 H         1 UNK         0.0815 
    109 H109       27.5000   29.2649    3.2895 H         1 UNK         0.0815 
    110 H110       30.5272   29.9038    0.2150 H         1 UNK         0.2987 
    111 H111       32.1225   31.2760   -0.4753 H         1 UNK         0.0949 
    112 H112       34.3995   31.0690    0.4736 H         1 UNK         0.0806 
    113 H113       33.6545   29.4889    0.3606 H         1 UNK         0.0806 
    114 H114       33.7690   30.2857    1.9228 H         1 UNK         0.0806 
    115 H115       33.8868   32.4466    2.0381 H         1 UNK         0.3010 
    116 H116       32.3652   34.9497    2.2632 H         1 UNK         0.0829 
    117 H117       35.0701   34.1209    3.4409 H         1 UNK         0.0813 
    118 H118       34.8382   34.9792    1.9169 H         1 UNK         0.0813 
    119 H119       34.3959   35.7450    3.4314 H         1 UNK         0.0813 
    120 H120       30.8752   32.9009    3.2718 H         1 UNK         0.3038 
    121 H121       29.6826   32.0774    4.9566 H         1 UNK         0.0769 
    122 H122       29.0452   33.6032    6.8014 H         1 UNK         0.0811 
    123 H123       29.0652   34.4732    5.2764 H         1 UNK         0.0811 
    124 H124       30.3874   34.6734    6.4252 H         1 UNK         0.0811 
    125 H125       31.9301   30.7735    4.8158 H         1 UNK         0.3204 
    126 H126       32.9118   30.3561    7.6155 H         1 UNK         0.0748 
    127 H127       35.2376   30.2377    6.7296 H         1 UNK         0.0771 
    128 H128       34.6692   30.6812    5.1241 H         1 UNK         0.0771 
    129 H129       34.5451   31.8294    6.4557 H         1 UNK         0.0771 
    130 H130       32.3943   28.9797    4.3382 H         1 UNK         0.2980 
    131 H131       33.4245   26.3724    5.1308 H         1 UNK         0.0545 
    132 H132       30.4557   24.4011    5.4969 H         1 UNK         0.3459 
    133 H133       32.1634   24.3729    5.1463 H         1 UNK         0.3459 
    134 H134       32.6932   25.6616    2.8629 H         1 UNK         0.0616 
    135 H135       31.9823   27.2187    2.5679 H         1 UNK         0.0616 
    136 H136       35.3104   25.1451    2.3140 H         1 UNK         0.0634 
    137 H137       35.9799   26.2233    1.1123 H         1 UNK         0.0634 
@<TRIPOS>BOND
     1    1    2 1    
     2    1   72 1    
     3    1   73 1    
     4    1   74 1    
     5    2    3 2    
     6    2    4 am   BACKBONE|DICT|INTERRES
     7    4    5 1    
     8    4   75 1    
     9    5    6 1    
    10    5   35 1    
    11    5   76 1    
    12    6    7 1    
    13    6   77 1    
    14    6   78 1    
    15    7    8 1    
    16    8    9 1    
    17    8   79 1    
    18    8   80 1    
    19    9   10 ar   
    20    9   14 ar   
    21   10   11 ar   
    22   10   81 1    
    23   11   12 ar   
    24   11   71 1    
    25   12   13 ar   
    26   12   82 1    
    27   13   14 ar   
    28   13   15 1    
    29   14   83 1    
    30   15   16 1    
    31   15   84 1    
    32   15   85 1    
    33   16   17 1    
    34   17   18 1    
    35   17   86 1    
    36   17   87 1    
    37   18   19 1    
    38   18   37 1    
    39   18   88 1    
    40   19   20 am   BACKBONE|DICT|INTERRES
    41   19   89 1    
    42   20   21 2    
    43   20   22 1    
    44   22   23 1    
    45   22   24 1    
    46   22   90 1    
    47   23   91 1    
    48   23   92 1    
    49   23   93 1    
    50   24   25 am   BACKBONE|DICT|INTERRES
    51   24   94 1    
    52   25   26 2    
    53   25   27 1    
    54   27   28 1    
    55   27   29 1    
    56   27   95 1    
    57   28   96 1    
    58   28   97 1    
    59   28   98 1    
    60   29   30 am   BACKBONE|DICT|INTERRES
    61   29   99 1    
    62   30   31 2    
    63   30   32 1    
    64   32   33 1    
    65   32   34 1    
    66   32  100 1    
    67   33  101 1    
    68   33  102 1    
    69   33  103 1    
    70   34   35 am   BACKBONE|DICT|INTERRES
    71   34  104 1    
    72   35   36 2    
    73   37   38 2    
    74   37   39 am   BACKBONE|DICT|INTERRES
    75   39   40 1    
    76   39  105 1    
    77   40   41 1    
    78   40   42 1    
    79   40  106 1    
    80   41  107 1    
    81   41  108 1    
    82   41  109 1    
    83   42   43 2    
    84   42   44 am   BACKBONE|DICT|INTERRES
    85   44   45 1    
    86   44  110 1    
    87   45   46 1    
    88   45   47 1    
    89   45  111 1    
    90   46  112 1    
    91   46  113 1    
    92   46  114 1    
    93   47   48 2    
    94   47   49 am   BACKBONE|DICT|INTERRES
    95   49   50 1    
    96   49  115 1    
    97   50   51 1    
    98   50   52 1    
    99   50  116 1    
   100   51  117 1    
   101   51  118 1    
   102   51  119 1    
   103   52   53 2    
   104   52   54 am   BACKBONE|DICT|INTERRES
   105   54   55 1    
   106   54  120 1    
   107   55   56 1    
   108   55   57 1    
   109   55  121 1    
   110   56  122 1    
   111   56  123 1    
   112   56  124 1    
   113   57   58 2    
   114   57   59 am   BACKBONE|DICT|INTERRES
   115   59   60 1    
   116   59  125 1    
   117   60   61 1    
   118   60   62 1    
   119   60  126 1    
   120   61  127 1    
   121   61  128 1    
   122   61  129 1    
   123   62   63 2    
   124   62   64 am   BACKBONE|DICT|INTERRES
   125   64   65 1    
   126   64  130 1    
   127   65   66 1    
   128   65   69 1    
   129   65  131 1    
   130   66   67 am   BACKBONE|DICT|INTERRES
   131   66   68 2    
   132   67  132 1    
   133   67  133 1    
   134   69   70 1    
   135   69  134 1    
   136   69  135 1    
   137   70   71 1    
   138   71  136 1    
   139   71  137 1    
@<TRIPOS>SUBSTRUCTURE
     1 UNK         1 GROUP             0       ****    0 ROOT    
